Program Version,EnergyPlus, Version 9.3.0-baff08990c, YMD=2025.12.01 16:03
! <Version>, Version ID
 Version, 9.3
! <Timesteps per Hour>, #TimeSteps, Minutes per TimeStep {minutes}
 Timesteps per Hour, 30,  2
! <System Convergence Limits>, Minimum System TimeStep {minutes}, Max HVAC Iterations, Minimum Plant Iterations, Maximum Plant Iterations
 System Convergence Limits, 1, 20, 2, 8
! <Simulation Control>, Do Zone Sizing, Do System Sizing, Do Plant Sizing, Do Design Days, Do Weather Simulation, Do HVAC Sizing Simulation
 Simulation Control, Yes, No, No, No, Yes, No
! <Performance Precision Tradeoffs>, Use Coil Direct Simulation, Zone Radiant Exchange Algorithm, Override Mode, Number of Timestep In Hour, Force Euler Method, Minimum Number of Warmup Days, Force Suppress All Begin Environment Resets, MaxZoneTempDiff
 Performance Precision Tradeoffs, No, ScriptF, Normal, 30, No, 1, No, 0.300
! <Output Reporting Tolerances>, Tolerance for Time Heating Setpoint Not Met, Tolerance for Zone Cooling Setpoint Not Met Time
 Output Reporting Tolerances, 0.200, 0.200, 
! <Site:GroundTemperature:BuildingSurface>,Jan{C},Feb{C},Mar{C},Apr{C},May{C},Jun{C},Jul{C},Aug{C},Sep{C},Oct{C},Nov{C},Dec{C}
 Site:GroundTemperature:BuildingSurface,  18.00,  18.00,  18.00,  18.00,  24.00,  24.30,  24.00,  18.00,  18.00,  18.00,  18.00,  18.00
! <Site:GroundTemperature:FCfactorMethod>,Jan{C},Feb{C},Mar{C},Apr{C},May{C},Jun{C},Jul{C},Aug{C},Sep{C},Oct{C},Nov{C},Dec{C}
 Site:GroundTemperature:FCfactorMethod,  27.55,  28.03,  28.32,  28.42,  28.26,  27.88,  27.40,  26.92,  26.59,  26.51,  26.68,  27.05
! <Site:GroundTemperature:Shallow>,Jan{C},Feb{C},Mar{C},Apr{C},May{C},Jun{C},Jul{C},Aug{C},Sep{C},Oct{C},Nov{C},Dec{C}
 Site:GroundTemperature:Shallow,  13.00,  13.00,  13.00,  13.00,  13.00,  13.00,  13.00,  13.00,  13.00,  13.00,  13.00,  13.00
! <Site:GroundTemperature:Deep>,Jan{C},Feb{C},Mar{C},Apr{C},May{C},Jun{C},Jul{C},Aug{C},Sep{C},Oct{C},Nov{C},Dec{C}
 Site:GroundTemperature:Deep,  16.00,  16.00,  16.00,  16.00,  16.00,  16.00,  16.00,  16.00,  16.00,  16.00,  16.00,  16.00
! <Site:GroundReflectance>,Jan{dimensionless},Feb{dimensionless},Mar{dimensionless},Apr{dimensionless},May{dimensionless},Jun{dimensionless},Jul{dimensionless},Aug{dimensionless},Sep{dimensionless},Oct{dimensionless},Nov{dimensionless},Dec{dimensionless}
 Site:GroundReflectance,  0.20,  0.20,  0.20,  0.20,  0.20,  0.20,  0.20,  0.20,  0.20,  0.20,  0.20,  0.20
! <Site:GroundReflectance:SnowModifier>, Normal, Daylighting {dimensionless}
 Site:GroundReflectance:SnowModifier,   1.000,   1.000
! <Site:GroundReflectance:Snow>,Jan{dimensionless},Feb{dimensionless},Mar{dimensionless},Apr{dimensionless},May{dimensionless},Jun{dimensionless},Jul{dimensionless},Aug{dimensionless},Sep{dimensionless},Oct{dimensionless},Nov{dimensionless},Dec{dimensionless}
 Site:GroundReflectance:Snow,  0.20,  0.20,  0.20,  0.20,  0.20,  0.20,  0.20,  0.20,  0.20,  0.20,  0.20,  0.20
! <Site:GroundReflectance:Snow:Daylighting>,Jan{dimensionless},Feb{dimensionless},Mar{dimensionless},Apr{dimensionless},May{dimensionless},Jun{dimensionless},Jul{dimensionless},Aug{dimensionless},Sep{dimensionless},Oct{dimensionless},Nov{dimensionless},Dec{dimensionless}
 Site:GroundReflectance:Snow:Daylighting,  0.20,  0.20,  0.20,  0.20,  0.20,  0.20,  0.20,  0.20,  0.20,  0.20,  0.20,  0.20
! <Environment:Weather Station>,Wind Sensor Height Above Ground {m},Wind Speed Profile Exponent {},Wind Speed Profile Boundary Layer Thickness {m},Air Temperature Sensor Height Above Ground {m},Wind Speed Modifier Coefficient-Internal,Temperature Modifier Coefficient-Internal
Environment:Weather Station,10.000,0.140,270.000,1.500,1.586,9.750E-003
! <Site:Location>, Location Name, Latitude {N+/S- Deg}, Longitude {E+/W- Deg},  Time Zone Number {GMT+/-}, Elevation {m},  Standard Pressure at Elevation {Pa}, Standard RhoAir at Elevation
Site:Location,SINGAPORE - SGP IWEC Data WMO#=486980,1.37,103.98,8.00,16.00,101133,1.2020
! <Site Water Mains Temperature Information>,Calculation Method{},Water Mains Temperature Schedule Name{},Annual Average Outdoor Air Temperature{C},Maximum Difference In Monthly Average Outdoor Air Temperatures{deltaC},Fixed Default Water Mains Temperature{C}
Site Water Mains Temperature Information,FixedDefault,NA,NA,NA,10.0
! <Building Information>, Building Name,North Axis {deg},Terrain,  Loads Convergence Tolerance Value,Temperature Convergence Tolerance Value,  Solar Distribution,Maximum Number of Warmup Days,Minimum Number of Warmup Days
 Building Information,Blk5,351.600,Urban,4.00000E-002,0.40000,FullExterior,25,1
! <Inside Convection Algorithm>, Algorithm {Simple | TARP | CeilingDiffuser | AdaptiveConvectionAlgorithm}
Inside Convection Algorithm,TARP
! <Outside Convection Algorithm>, Algorithm {SimpleCombined | TARP | MoWitt | DOE-2 | AdaptiveConvectionAlgorithm}
Outside Convection Algorithm,DOE-2
! <Sky Radiance Distribution>, Value {Anisotropic}
Sky Radiance Distribution,Anisotropic
! <Zone Air Solution Algorithm>, Value {ThirdOrderBackwardDifference | AnalyticalSolution | EulerMethod}
 Zone Air Solution Algorithm, ThirdOrderBackwardDifference
! <Zone Air Carbon Dioxide Balance Simulation>, Simulation {Yes/No}, Carbon Dioxide Concentration
 Zone Air Carbon Dioxide Balance Simulation, No,N/A
! <Zone Air Generic Contaminant Balance Simulation>, Simulation {Yes/No}, Generic Contaminant Concentration
 Zone Air Generic Contaminant Balance Simulation, No,N/A
! <Zone Air Mass Flow Balance Simulation>, Enforce Mass Balance, Adjust Zone Mixing, Adjust Zone Infiltration {AddInfiltration | AdjustInfiltration | None}, Infiltration Zones {MixingSourceZonesOnly | AllZones}
 Zone Air Mass Flow Balance Simulation, No,N/A,N/A,N/A
! <HVACSystemRootFindingAlgorithm>, Value {RegulaFalsi | Bisection | BisectionThenRegulaFalsi | RegulaFalsiThenBisection}
 HVACSystemRootFindingAlgorithm, RegulaFalsi
! <Environment:Site Atmospheric Variation>,Wind Speed Profile Exponent {},Wind Speed Profile Boundary Layer Thickness {m},Air Temperature Gradient Coefficient {K/m}
Environment:Site Atmospheric Variation,0.220,370.000,6.500000E-003
! <Surface Geometry>,Starting Corner,Vertex Input Direction,Coordinate System,Daylight Reference Point Coordinate System,Rectangular (Simple) Surface Coordinate System
 Surface Geometry,UpperLeftCorner,Counterclockwise,RelativeCoordinateSystem,RelativeCoordinateSystem,RelativeToZoneOrigin
! <Surface Heat Transfer Algorithm>, Value {CTF - ConductionTransferFunction | EMPD - MoisturePenetrationDepthConductionTransferFunction | CondFD - ConductionFiniteDifference | HAMT - CombinedHeatAndMoistureFiniteElement} - Description,Inside Surface Max Temperature Limit{C}, Surface Convection Coefficient Lower Limit {W/m2-K}, Surface Convection Coefficient Upper Limit {W/m2-K}
Surface Heat Transfer Algorithm, CTF - ConductionTransferFunction,200,0.10,1000.0
! <Shading Summary>, Number of Fixed Detached Shades, Number of Building Detached Shades, Number of Attached Shades
 Shading Summary,0,38,0
! <Zone Summary>, Number of Zones, Number of Zone Surfaces, Number of SubSurfaces
 Zone Summary,24,396,81
! <Zone Information>,Zone Name,North Axis {deg},Origin X-Coordinate {m},Origin Y-Coordinate {m},Origin Z-Coordinate {m},Centroid X-Coordinate {m},Centroid Y-Coordinate {m},Centroid Z-Coordinate {m},Type,Zone Multiplier,Zone List Multiplier,Minimum X {m},Maximum X {m},Minimum Y {m},Maximum Y {m},Minimum Z {m},Maximum Z {m},Ceiling Height {m},Volume {m3},Zone Inside Convection Algorithm {Simple-Detailed-CeilingDiffuser-TrombeWall},Zone Outside Convection Algorithm {Simple-Detailed-Tarp-MoWitt-DOE-2-BLAST}, Floor Area {m2},Exterior Gross Wall Area {m2},Exterior Net Wall Area {m2},Exterior Window Area {m2}, Number of Surfaces, Number of SubSurfaces, Number of Shading SubSurfaces,  Part of Total Building Area
 Zone Information, GND_5R_NAC,0.0,60.41,-77.13,0.00,38.95,11.90,1.80,1,3,1,34.85,42.21,5.79,17.91,0.00,3.60,3.60,153.66,TARP,DOE-2,43.00,30.57,24.21,6.36,20,4,0,Yes
 Zone Information, GND_5R_NV,0.0,72.60,-65.33,0.00,34.69,12.17,1.80,1,3,1,28.43,41.61,4.45,18.83,0.00,3.60,3.60,338.44,TARP,DOE-2,94.00,104.94,97.02,7.92,28,5,0,Yes
 Zone Information, TOP_5R_NV,0.0,72.60,-65.33,0.00,34.72,12.20,33.00,1,3,1,28.43,41.61,4.45,18.83,31.60,34.40,2.80,263.23,TARP,DOE-2,94.00,81.62,73.70,7.92,28,5,0,Yes
 Zone Information, TOP_5R_AC,0.0,60.41,-77.13,0.00,38.93,11.93,33.00,1,3,1,34.85,42.21,5.79,17.91,31.60,34.40,3.03,119.51,TARP,DOE-2,43.00,23.78,17.41,6.36,20,4,0,Yes
 Zone Information, MID_5R_AC,0.0,60.41,-77.13,0.00,38.93,11.93,19.00,1,3,10,34.85,42.21,5.79,17.91,17.60,20.40,2.93,119.51,TARP,DOE-2,43.00,23.78,17.41,6.36,20,4,0,Yes
 Zone Information, MID_5R_NV,0.0,72.60,-65.33,0.00,34.72,12.20,19.00,1,3,10,28.43,41.61,4.45,18.83,17.60,20.40,2.80,263.23,TARP,DOE-2,94.00,81.62,73.70,7.92,28,5,0,Yes
 Zone Information, GND_3R_NAC_RHT,0.0,7.25,-72.70,0.00,70.21,14.84,1.80,1,1,1,68.06,72.36,10.24,19.43,0.00,3.60,3.60,97.00,TARP,DOE-2,32.00,48.15,44.51,3.64,7,2,0,Yes
 Zone Information, GND_3R_NV_RHT,0.0,9.24,-88.15,0.00,67.35,18.11,1.80,1,1,1,64.61,69.60,9.80,24.17,0.00,3.60,3.60,169.06,TARP,DOE-2,52.00,53.52,47.30,6.22,12,4,0,Yes
 Zone Information, GND_3R_NV_MID,0.0,51.03,-88.15,0.00,50.90,15.68,1.80,1,4,1,47.99,54.27,7.57,21.63,0.00,3.60,3.60,169.06,TARP,DOE-2,47.00,53.52,47.30,6.22,12,4,0,Yes
 Zone Information, GND_3R_NAC_MID,0.0,56.01,-74.22,0.00,49.10,11.72,1.80,1,4,1,46.95,51.26,7.12,16.31,0.00,3.60,3.60,97.00,TARP,DOE-2,27.00,16.32,12.69,3.64,7,2,0,Yes
 Zone Information, GND_3R_NAC_LFT,0.0,56.01,-74.22,0.00,0.86,4.60,1.80,1,1,1,-1.29,3.02,0.00,9.19,0.00,3.60,3.60,97.00,TARP,DOE-2,27.00,48.15,44.51,3.64,7,2,0,Yes
 Zone Information, GND_3R_NV_LFT,0.0,51.03,-88.15,0.00,2.66,8.56,1.80,1,1,1,-0.25,6.03,0.45,14.50,0.00,3.60,3.60,169.06,TARP,DOE-2,47.00,53.52,47.30,6.22,12,4,0,Yes
 Zone Information, MID_3R_AC_RHT,0.0,7.25,-72.70,0.00,70.21,14.84,19.00,1,1,10,68.06,72.36,10.24,19.43,17.60,20.40,5.58,75.44,TARP,DOE-2,32.00,37.45,33.81,3.64,7,2,0,Yes
 Zone Information, MID_3R_AC_MID,0.0,56.01,-74.22,0.00,49.10,11.72,19.00,1,4,10,46.95,51.26,7.12,16.31,17.60,20.40,2.84,75.44,TARP,DOE-2,27.00,12.70,9.06,3.64,7,2,0,Yes
 Zone Information, MID_3R_NV_MID,0.0,51.03,-88.15,0.00,50.84,15.80,19.00,1,4,10,47.99,54.27,7.57,21.63,17.60,20.40,2.81,131.49,TARP,DOE-2,47.00,41.63,35.41,6.22,12,4,0,Yes
 Zone Information, MID_3R_NV_RHT,0.0,9.24,-88.15,0.00,67.37,18.24,19.00,1,1,10,64.61,69.60,9.80,24.17,17.60,20.40,4.51,131.49,TARP,DOE-2,52.00,41.63,35.41,6.22,12,4,0,Yes
 Zone Information, MID_3R_AC_LFT,0.0,56.01,-74.22,0.00,0.86,4.60,19.00,1,1,10,-1.29,3.02,-4.72E-007,9.19,17.60,20.40,2.84,75.44,TARP,DOE-2,27.00,37.45,33.81,3.64,7,2,0,Yes
 Zone Information, MID_3R_NV_LFT,0.0,51.03,-88.15,0.00,2.60,8.68,19.00,1,1,10,-0.25,6.03,0.45,14.50,17.60,20.40,2.81,131.49,TARP,DOE-2,47.00,41.63,35.41,6.22,12,4,0,Yes
 Zone Information, TOP_3R_AC_RHT,0.0,7.25,-72.70,0.00,70.21,14.84,33.00,1,1,1,68.06,72.36,10.24,19.43,31.60,34.40,7.79,75.44,TARP,DOE-2,32.00,37.45,33.81,3.64,7,2,0,Yes
 Zone Information, TOP_3R_NV_MID,0.0,51.03,-88.15,0.00,50.84,15.80,33.00,1,4,1,47.99,54.27,7.57,21.63,31.60,34.40,2.83,131.49,TARP,DOE-2,47.00,41.63,35.41,6.22,12,4,0,Yes
 Zone Information, TOP_3R_AC_LFT,0.0,56.01,-74.22,0.00,0.86,4.60,33.00,1,1,1,-1.29,3.02,-4.72E-007,9.19,31.60,34.40,2.87,75.44,TARP,DOE-2,27.00,37.45,33.81,3.64,7,2,0,Yes
 Zone Information, TOP_3R_AC_MID,0.0,56.01,-74.22,0.00,49.10,11.72,33.00,1,4,1,46.95,51.26,7.12,16.31,31.60,34.40,2.87,75.44,TARP,DOE-2,27.00,12.70,9.06,3.64,7,2,0,Yes
 Zone Information, TOP_3R_NV_RHT,0.0,9.24,-88.15,0.00,67.37,18.24,33.00,1,1,1,64.61,69.60,9.80,24.17,31.60,34.40,5.86,131.49,TARP,DOE-2,52.00,41.63,35.41,6.22,12,4,0,Yes
 Zone Information, TOP_3R_NV_LFT,0.0,51.03,-88.15,0.00,2.60,8.68,33.00,1,1,1,-0.25,6.03,0.45,14.50,31.60,34.40,2.83,131.49,TARP,DOE-2,47.00,41.63,35.41,6.22,12,4,0,Yes
! <Zone Internal Gains Nominal>,Zone Name, Floor Area {m2},# Occupants,Area per Occupant {m2/person},Occupant per Area {person/m2},Interior Lighting {W/m2},Electric Load {W/m2},Gas Load {W/m2},Other Load {W/m2},Hot Water Eq {W/m2},Steam Equipment {W/m2},Sum Loads per Area {W/m2},Outdoor Controlled Baseboard Heat
 Zone Internal Gains Nominal, GND_5R_NAC,43.00,0.0,N/A,0.000,0.000,0.000,0.000,0.000,0.000,0.000,0.000,No
 Zone Internal Gains Nominal, GND_5R_NV,94.00,0.0,N/A,0.000,0.000,0.000,0.000,0.000,0.000,0.000,0.000,No
 Zone Internal Gains Nominal, TOP_5R_NV,94.00,2.0,47.000,2.128E-002,0.851,43.170,0.000,0.000,0.000,0.000,44.021,No
 Zone Internal Gains Nominal, TOP_5R_AC,43.00,6.0,7.167,0.140,2.791,2.721,0.000,0.000,0.000,0.000,5.512,No
 Zone Internal Gains Nominal, MID_5R_AC,43.00,6.0,7.167,0.140,2.791,2.721,0.000,0.000,0.000,0.000,5.512,No
 Zone Internal Gains Nominal, MID_5R_NV,94.00,2.0,47.000,2.128E-002,0.851,43.170,0.000,0.000,0.000,0.000,44.021,No
 Zone Internal Gains Nominal, GND_3R_NAC_RHT,32.00,0.0,N/A,0.000,0.000,0.000,0.000,0.000,0.000,0.000,0.000,No
 Zone Internal Gains Nominal, GND_3R_NV_RHT,52.00,0.0,N/A,0.000,0.000,0.000,0.000,0.000,0.000,0.000,0.000,No
 Zone Internal Gains Nominal, GND_3R_NV_MID,47.00,0.0,N/A,0.000,0.000,0.000,0.000,0.000,0.000,0.000,0.000,No
 Zone Internal Gains Nominal, GND_3R_NAC_MID,27.00,0.0,N/A,0.000,0.000,0.000,0.000,0.000,0.000,0.000,0.000,No
 Zone Internal Gains Nominal, GND_3R_NAC_LFT,27.00,0.0,N/A,0.000,0.000,0.000,0.000,0.000,0.000,0.000,0.000,No
 Zone Internal Gains Nominal, GND_3R_NV_LFT,47.00,0.0,N/A,0.000,0.000,0.000,0.000,0.000,0.000,0.000,0.000,No
 Zone Internal Gains Nominal, MID_3R_AC_RHT,32.00,4.0,8.000,0.125,2.500,2.438,0.000,0.000,0.000,0.000,4.938,No
 Zone Internal Gains Nominal, MID_3R_AC_MID,27.00,4.0,6.750,0.148,2.963,2.889,0.000,0.000,0.000,0.000,5.852,No
 Zone Internal Gains Nominal, MID_3R_NV_MID,47.00,2.0,23.500,4.255E-002,1.702,86.340,0.000,0.000,0.000,0.000,88.043,No
 Zone Internal Gains Nominal, MID_3R_NV_RHT,52.00,2.0,26.000,3.846E-002,1.538,78.038,0.000,0.000,0.000,0.000,79.577,No
 Zone Internal Gains Nominal, MID_3R_AC_LFT,27.00,4.0,6.750,0.148,2.963,2.889,0.000,0.000,0.000,0.000,5.852,No
 Zone Internal Gains Nominal, MID_3R_NV_LFT,47.00,2.0,23.500,4.255E-002,1.702,86.340,0.000,0.000,0.000,0.000,88.043,No
 Zone Internal Gains Nominal, TOP_3R_AC_RHT,32.00,4.0,8.000,0.125,2.500,2.438,0.000,0.000,0.000,0.000,4.938,No
 Zone Internal Gains Nominal, TOP_3R_NV_MID,47.00,2.0,23.500,4.255E-002,1.702,86.340,0.000,0.000,0.000,0.000,88.043,No
 Zone Internal Gains Nominal, TOP_3R_AC_LFT,27.00,4.0,6.750,0.148,2.963,2.889,0.000,0.000,0.000,0.000,5.852,No
 Zone Internal Gains Nominal, TOP_3R_AC_MID,27.00,4.0,6.750,0.148,2.963,2.889,0.000,0.000,0.000,0.000,5.852,No
 Zone Internal Gains Nominal, TOP_3R_NV_RHT,52.00,2.0,26.000,3.846E-002,1.538,78.038,0.000,0.000,0.000,0.000,79.577,No
 Zone Internal Gains Nominal, TOP_3R_NV_LFT,47.00,2.0,23.500,4.255E-002,1.702,86.340,0.000,0.000,0.000,0.000,88.043,No
! <People Internal Gains Nominal>,Name,Schedule Name,Zone Name,Zone Floor Area {m2},# Zone Occupants,Number of People {},People/Floor Area {person/m2},Floor Area per person {m2/person},Fraction Radiant,Fraction Convected,Sensible Fraction Calculation,Activity level,ASHRAE 55 Warnings,Carbon Dioxide Generation Rate,Nominal Minimum Number of People,Nominal Maximum Number of People
 People Internal Gains Nominal, MID_5R_AC SLEEPING 5-R,SLEEPING OCC SCHEDULE,MID_5R_AC,43.00,6.0,4.0,9.302E-002,10.750,0.300,0.700,AutoCalculate,SLEEPING SCHEDULE PER PAX,No,3.8200E-008,0,4
 People Internal Gains Nominal, TOP_5R_AC SLEEPING 5-R,SLEEPING OCC SCHEDULE,TOP_5R_AC,43.00,6.0,4.0,9.302E-002,10.750,0.300,0.700,AutoCalculate,SLEEPING SCHEDULE PER PAX,No,3.8200E-008,0,4
 People Internal Gains Nominal, MID_3R_AC_MID SLEEPING 3-R,SLEEPING OCC SCHEDULE,MID_3R_AC_MID,27.00,4.0,2.0,7.407E-002,13.500,0.300,0.700,AutoCalculate,SLEEPING SCHEDULE PER PAX,No,3.8200E-008,0,2
 People Internal Gains Nominal, MID_3R_AC_RHT SLEEPING 3-R,SLEEPING OCC SCHEDULE,MID_3R_AC_RHT,32.00,4.0,2.0,6.250E-002,16.000,0.300,0.700,AutoCalculate,SLEEPING SCHEDULE PER PAX,No,3.8200E-008,0,2
 People Internal Gains Nominal, MID_3R_AC_LFT SLEEPING 3-R,SLEEPING OCC SCHEDULE,MID_3R_AC_LFT,27.00,4.0,2.0,7.407E-002,13.500,0.300,0.700,AutoCalculate,SLEEPING SCHEDULE PER PAX,No,3.8200E-008,0,2
 People Internal Gains Nominal, TOP_3R_AC_MID SLEEPING 3-R,SLEEPING OCC SCHEDULE,TOP_3R_AC_MID,27.00,4.0,2.0,7.407E-002,13.500,0.300,0.700,AutoCalculate,SLEEPING SCHEDULE PER PAX,No,3.8200E-008,0,2
 People Internal Gains Nominal, TOP_3R_AC_LFT SLEEPING 3-R,SLEEPING OCC SCHEDULE,TOP_3R_AC_LFT,27.00,4.0,2.0,7.407E-002,13.500,0.300,0.700,AutoCalculate,SLEEPING SCHEDULE PER PAX,No,3.8200E-008,0,2
 People Internal Gains Nominal, TOP_3R_AC_RHT SLEEPING 3-R,SLEEPING OCC SCHEDULE,TOP_3R_AC_RHT,32.00,4.0,2.0,6.250E-002,16.000,0.300,0.700,AutoCalculate,SLEEPING SCHEDULE PER PAX,No,3.8200E-008,0,2
 People Internal Gains Nominal, MID_5R_AC SITTING 5-R C-ROOMS,SITTING C-ROOM OCC SCHEDULE,MID_5R_AC,43.00,6.0,2.0,4.651E-002,21.500,0.300,0.700,AutoCalculate,SITTING C-ROOM SCHEDULE PER PAX,No,3.8200E-008,0,2
 People Internal Gains Nominal, TOP_5R_AC SITTING 5-R C-ROOMS,SITTING C-ROOM OCC SCHEDULE,TOP_5R_AC,43.00,6.0,2.0,4.651E-002,21.500,0.300,0.700,AutoCalculate,SITTING C-ROOM SCHEDULE PER PAX,No,3.8200E-008,0,2
 People Internal Gains Nominal, MID_3R_AC_MID SITTING 3-R C-ROOMS,SITTING C-ROOM OCC SCHEDULE,MID_3R_AC_MID,27.00,4.0,2.0,7.407E-002,13.500,0.300,0.700,AutoCalculate,SITTING C-ROOM SCHEDULE PER PAX,No,3.8200E-008,0,2
 People Internal Gains Nominal, MID_3R_AC_RHT SITTING 3-R C-ROOMS,SITTING C-ROOM OCC SCHEDULE,MID_3R_AC_RHT,32.00,4.0,2.0,6.250E-002,16.000,0.300,0.700,AutoCalculate,SITTING C-ROOM SCHEDULE PER PAX,No,3.8200E-008,0,2
 People Internal Gains Nominal, MID_3R_AC_LFT SITTING 3-R C-ROOMS,SITTING C-ROOM OCC SCHEDULE,MID_3R_AC_LFT,27.00,4.0,2.0,7.407E-002,13.500,0.300,0.700,AutoCalculate,SITTING C-ROOM SCHEDULE PER PAX,No,3.8200E-008,0,2
 People Internal Gains Nominal, TOP_3R_AC_MID SITTING 3-R C-ROOMS,SITTING C-ROOM OCC SCHEDULE,TOP_3R_AC_MID,27.00,4.0,2.0,7.407E-002,13.500,0.300,0.700,AutoCalculate,SITTING C-ROOM SCHEDULE PER PAX,No,3.8200E-008,0,2
 People Internal Gains Nominal, TOP_3R_AC_LFT SITTING 3-R C-ROOMS,SITTING C-ROOM OCC SCHEDULE,TOP_3R_AC_LFT,27.00,4.0,2.0,7.407E-002,13.500,0.300,0.700,AutoCalculate,SITTING C-ROOM SCHEDULE PER PAX,No,3.8200E-008,0,2
 People Internal Gains Nominal, TOP_3R_AC_RHT SITTING 3-R C-ROOMS,SITTING C-ROOM OCC SCHEDULE,TOP_3R_AC_RHT,32.00,4.0,2.0,6.250E-002,16.000,0.300,0.700,AutoCalculate,SITTING C-ROOM SCHEDULE PER PAX,No,3.8200E-008,0,2
 People Internal Gains Nominal, TOP_5R_NV SITTING LIVING ROOMS,SITTING L-ROOM OCC SCHEDULE,TOP_5R_NV,94.00,2.0,2.0,2.128E-002,47.000,0.300,0.700,AutoCalculate,SITTING L-ROOM SCHEDULE PER PAX,No,3.8200E-008,0,2
 People Internal Gains Nominal, TOP_3R_NV_MID SITTING LIVING ROOMS,SITTING L-ROOM OCC SCHEDULE,TOP_3R_NV_MID,47.00,2.0,2.0,4.255E-002,23.500,0.300,0.700,AutoCalculate,SITTING L-ROOM SCHEDULE PER PAX,No,3.8200E-008,0,2
 People Internal Gains Nominal, TOP_3R_NV_RHT SITTING LIVING ROOMS,SITTING L-ROOM OCC SCHEDULE,TOP_3R_NV_RHT,52.00,2.0,2.0,3.846E-002,26.000,0.300,0.700,AutoCalculate,SITTING L-ROOM SCHEDULE PER PAX,No,3.8200E-008,0,2
 People Internal Gains Nominal, TOP_3R_NV_LFT SITTING LIVING ROOMS,SITTING L-ROOM OCC SCHEDULE,TOP_3R_NV_LFT,47.00,2.0,2.0,4.255E-002,23.500,0.300,0.700,AutoCalculate,SITTING L-ROOM SCHEDULE PER PAX,No,3.8200E-008,0,2
 People Internal Gains Nominal, MID_3R_NV_RHT SITTING LIVING ROOMS,SITTING L-ROOM OCC SCHEDULE,MID_3R_NV_RHT,52.00,2.0,2.0,3.846E-002,26.000,0.300,0.700,AutoCalculate,SITTING L-ROOM SCHEDULE PER PAX,No,3.8200E-008,0,2
 People Internal Gains Nominal, MID_3R_NV_LFT SITTING LIVING ROOMS,SITTING L-ROOM OCC SCHEDULE,MID_3R_NV_LFT,47.00,2.0,2.0,4.255E-002,23.500,0.300,0.700,AutoCalculate,SITTING L-ROOM SCHEDULE PER PAX,No,3.8200E-008,0,2
 People Internal Gains Nominal, MID_3R_NV_MID SITTING LIVING ROOMS,SITTING L-ROOM OCC SCHEDULE,MID_3R_NV_MID,47.00,2.0,2.0,4.255E-002,23.500,0.300,0.700,AutoCalculate,SITTING L-ROOM SCHEDULE PER PAX,No,3.8200E-008,0,2
 People Internal Gains Nominal, MID_5R_NV SITTING LIVING ROOMS,SITTING L-ROOM OCC SCHEDULE,MID_5R_NV,94.00,2.0,2.0,2.128E-002,47.000,0.300,0.700,AutoCalculate,SITTING L-ROOM SCHEDULE PER PAX,No,3.8200E-008,0,2
! <Lights Internal Gains Nominal>,Name,Schedule Name,Zone Name,Zone Floor Area {m2},# Zone Occupants,Lighting Level {W},Lights/Floor Area {W/m2},Lights per person {W/person},Fraction Return Air,Fraction Radiant,Fraction Short Wave,Fraction Convected,Fraction Replaceable,End-Use Category,Nominal Minimum Lighting Level {W},Nominal Maximum Lighting Level {W}
 Lights Internal Gains Nominal, MID_3R_NV_RHT LIGHTING NAC ZONES,NAC LIGHTING SCHEDULE,MID_3R_NV_RHT,52.00,2.0,80.000,1.538,40.000,0.000,0.000,0.000,1.000,1.000,General,0.000,80.000
 Lights Internal Gains Nominal, TOP_3R_NV_MID LIGHTING NAC ZONES,NAC LIGHTING SCHEDULE,TOP_3R_NV_MID,47.00,2.0,80.000,1.702,40.000,0.000,0.000,0.000,1.000,1.000,General,0.000,80.000
 Lights Internal Gains Nominal, TOP_5R_NV LIGHTING NAC ZONES,NAC LIGHTING SCHEDULE,TOP_5R_NV,94.00,2.0,80.000,0.851,40.000,0.000,0.000,0.000,1.000,1.000,General,0.000,80.000
 Lights Internal Gains Nominal, TOP_3R_NV_RHT LIGHTING NAC ZONES,NAC LIGHTING SCHEDULE,TOP_3R_NV_RHT,52.00,2.0,80.000,1.538,40.000,0.000,0.000,0.000,1.000,1.000,General,0.000,80.000
 Lights Internal Gains Nominal, MID_5R_NV LIGHTING NAC ZONES,NAC LIGHTING SCHEDULE,MID_5R_NV,94.00,2.0,80.000,0.851,40.000,0.000,0.000,0.000,1.000,1.000,General,0.000,80.000
 Lights Internal Gains Nominal, MID_3R_NV_LFT LIGHTING NAC ZONES,NAC LIGHTING SCHEDULE,MID_3R_NV_LFT,47.00,2.0,80.000,1.702,40.000,0.000,0.000,0.000,1.000,1.000,General,0.000,80.000
 Lights Internal Gains Nominal, MID_3R_NV_MID LIGHTING NAC ZONES,NAC LIGHTING SCHEDULE,MID_3R_NV_MID,47.00,2.0,80.000,1.702,40.000,0.000,0.000,0.000,1.000,1.000,General,0.000,80.000
 Lights Internal Gains Nominal, TOP_3R_NV_LFT LIGHTING NAC ZONES,NAC LIGHTING SCHEDULE,TOP_3R_NV_LFT,47.00,2.0,80.000,1.702,40.000,0.000,0.000,0.000,1.000,1.000,General,0.000,80.000
 Lights Internal Gains Nominal, MID_5R_AC LIGHTING  5-R AC ZONES,AC LIGHTING SCHEDULE,MID_5R_AC,43.00,6.0,120.000,2.791,20.000,0.000,0.000,0.000,1.000,1.000,General,0.000,120.000
 Lights Internal Gains Nominal, TOP_5R_AC LIGHTING  5-R AC ZONES,AC LIGHTING SCHEDULE,TOP_5R_AC,43.00,6.0,120.000,2.791,20.000,0.000,0.000,0.000,1.000,1.000,General,0.000,120.000
 Lights Internal Gains Nominal, MID_3R_AC_MID LIGHTING 3-R AC ZONES,AC LIGHTING SCHEDULE,MID_3R_AC_MID,27.00,4.0,80.000,2.963,20.000,0.000,0.000,0.000,1.000,1.000,General,0.000,80.000
 Lights Internal Gains Nominal, MID_3R_AC_RHT LIGHTING 3-R AC ZONES,AC LIGHTING SCHEDULE,MID_3R_AC_RHT,32.00,4.0,80.000,2.500,20.000,0.000,0.000,0.000,1.000,1.000,General,0.000,80.000
 Lights Internal Gains Nominal, MID_3R_AC_LFT LIGHTING 3-R AC ZONES,AC LIGHTING SCHEDULE,MID_3R_AC_LFT,27.00,4.0,80.000,2.963,20.000,0.000,0.000,0.000,1.000,1.000,General,0.000,80.000
 Lights Internal Gains Nominal, TOP_3R_AC_MID LIGHTING 3-R AC ZONES,AC LIGHTING SCHEDULE,TOP_3R_AC_MID,27.00,4.0,80.000,2.963,20.000,0.000,0.000,0.000,1.000,1.000,General,0.000,80.000
 Lights Internal Gains Nominal, TOP_3R_AC_LFT LIGHTING 3-R AC ZONES,AC LIGHTING SCHEDULE,TOP_3R_AC_LFT,27.00,4.0,80.000,2.963,20.000,0.000,0.000,0.000,1.000,1.000,General,0.000,80.000
 Lights Internal Gains Nominal, TOP_3R_AC_RHT LIGHTING 3-R AC ZONES,AC LIGHTING SCHEDULE,TOP_3R_AC_RHT,32.00,4.0,80.000,2.500,20.000,0.000,0.000,0.000,1.000,1.000,General,0.000,80.000
! <ElectricEquipment Internal Gains Nominal>,Name,Schedule Name,Zone Name,Zone Floor Area {m2},# Zone Occupants,Equipment Level {W},Equipment/Floor Area {W/m2},Equipment per person {W/person},Fraction Latent,Fraction Radiant,Fraction Lost,Fraction Convected,End-Use SubCategory,Nominal Minimum Equipment Level {W},Nominal Maximum Equipment Level {W}
 ElectricEquipment Internal Gains Nominal, MID_5R_AC FAN 5-R ZONES,FAN SCHEDULE,MID_5R_AC,43.00,6.0,117.000,2.721,19.500,0.000,0.000,0.000,1.000,General,0.000,117.000
 ElectricEquipment Internal Gains Nominal, TOP_5R_AC FAN 5-R ZONES,FAN SCHEDULE,TOP_5R_AC,43.00,6.0,117.000,2.721,19.500,0.000,0.000,0.000,1.000,General,0.000,117.000
 ElectricEquipment Internal Gains Nominal, MID_3R_AC_MID FAN 3-R ZONES,FAN SCHEDULE,MID_3R_AC_MID,27.00,4.0,78.000,2.889,19.500,0.000,0.000,0.000,1.000,General,0.000,78.000
 ElectricEquipment Internal Gains Nominal, MID_3R_AC_RHT FAN 3-R ZONES,FAN SCHEDULE,MID_3R_AC_RHT,32.00,4.0,78.000,2.438,19.500,0.000,0.000,0.000,1.000,General,0.000,78.000
 ElectricEquipment Internal Gains Nominal, MID_3R_AC_LFT FAN 3-R ZONES,FAN SCHEDULE,MID_3R_AC_LFT,27.00,4.0,78.000,2.889,19.500,0.000,0.000,0.000,1.000,General,0.000,78.000
 ElectricEquipment Internal Gains Nominal, TOP_3R_AC_MID FAN 3-R ZONES,FAN SCHEDULE,TOP_3R_AC_MID,27.00,4.0,78.000,2.889,19.500,0.000,0.000,0.000,1.000,General,0.000,78.000
 ElectricEquipment Internal Gains Nominal, TOP_3R_AC_LFT FAN 3-R ZONES,FAN SCHEDULE,TOP_3R_AC_LFT,27.00,4.0,78.000,2.889,19.500,0.000,0.000,0.000,1.000,General,0.000,78.000
 ElectricEquipment Internal Gains Nominal, TOP_3R_AC_RHT FAN 3-R ZONES,FAN SCHEDULE,TOP_3R_AC_RHT,32.00,4.0,78.000,2.438,19.500,0.000,0.000,0.000,1.000,General,0.000,78.000
 ElectricEquipment Internal Gains Nominal, MID_3R_NV_RHT KETTLE,KETTLE SCHEDULE,MID_3R_NV_RHT,52.00,2.0,2525.000,48.558,1262.500,0.000,0.000,0.000,1.000,General,0.000,2525.000
 ElectricEquipment Internal Gains Nominal, TOP_3R_NV_MID KETTLE,KETTLE SCHEDULE,TOP_3R_NV_MID,47.00,2.0,2525.000,53.723,1262.500,0.000,0.000,0.000,1.000,General,0.000,2525.000
 ElectricEquipment Internal Gains Nominal, TOP_5R_NV KETTLE,KETTLE SCHEDULE,TOP_5R_NV,94.00,2.0,2525.000,26.862,1262.500,0.000,0.000,0.000,1.000,General,0.000,2525.000
 ElectricEquipment Internal Gains Nominal, TOP_3R_NV_RHT KETTLE,KETTLE SCHEDULE,TOP_3R_NV_RHT,52.00,2.0,2525.000,48.558,1262.500,0.000,0.000,0.000,1.000,General,0.000,2525.000
 ElectricEquipment Internal Gains Nominal, MID_5R_NV KETTLE,KETTLE SCHEDULE,MID_5R_NV,94.00,2.0,2525.000,26.862,1262.500,0.000,0.000,0.000,1.000,General,0.000,2525.000
 ElectricEquipment Internal Gains Nominal, MID_3R_NV_LFT KETTLE,KETTLE SCHEDULE,MID_3R_NV_LFT,47.00,2.0,2525.000,53.723,1262.500,0.000,0.000,0.000,1.000,General,0.000,2525.000
 ElectricEquipment Internal Gains Nominal, MID_3R_NV_MID KETTLE,KETTLE SCHEDULE,MID_3R_NV_MID,47.00,2.0,2525.000,53.723,1262.500,0.000,0.000,0.000,1.000,General,0.000,2525.000
 ElectricEquipment Internal Gains Nominal, TOP_3R_NV_LFT KETTLE,KETTLE SCHEDULE,TOP_3R_NV_LFT,47.00,2.0,2525.000,53.723,1262.500,0.000,0.000,0.000,1.000,General,0.000,2525.000
 ElectricEquipment Internal Gains Nominal, MID_3R_NV_RHT IRON,ELECTRIC IRON SCHEDULE,MID_3R_NV_RHT,52.00,2.0,328.000,6.308,164.000,0.000,0.000,0.000,1.000,General,0.000,328.000
 ElectricEquipment Internal Gains Nominal, TOP_3R_NV_MID IRON,ELECTRIC IRON SCHEDULE,TOP_3R_NV_MID,47.00,2.0,328.000,6.979,164.000,0.000,0.000,0.000,1.000,General,0.000,328.000
 ElectricEquipment Internal Gains Nominal, TOP_5R_NV IRON,ELECTRIC IRON SCHEDULE,TOP_5R_NV,94.00,2.0,328.000,3.489,164.000,0.000,0.000,0.000,1.000,General,0.000,328.000
 ElectricEquipment Internal Gains Nominal, TOP_3R_NV_RHT IRON,ELECTRIC IRON SCHEDULE,TOP_3R_NV_RHT,52.00,2.0,328.000,6.308,164.000,0.000,0.000,0.000,1.000,General,0.000,328.000
 ElectricEquipment Internal Gains Nominal, MID_5R_NV IRON,ELECTRIC IRON SCHEDULE,MID_5R_NV,94.00,2.0,328.000,3.489,164.000,0.000,0.000,0.000,1.000,General,0.000,328.000
 ElectricEquipment Internal Gains Nominal, MID_3R_NV_LFT IRON,ELECTRIC IRON SCHEDULE,MID_3R_NV_LFT,47.00,2.0,328.000,6.979,164.000,0.000,0.000,0.000,1.000,General,0.000,328.000
 ElectricEquipment Internal Gains Nominal, MID_3R_NV_MID IRON,ELECTRIC IRON SCHEDULE,MID_3R_NV_MID,47.00,2.0,328.000,6.979,164.000,0.000,0.000,0.000,1.000,General,0.000,328.000
 ElectricEquipment Internal Gains Nominal, TOP_3R_NV_LFT IRON,ELECTRIC IRON SCHEDULE,TOP_3R_NV_LFT,47.00,2.0,328.000,6.979,164.000,0.000,0.000,0.000,1.000,General,0.000,328.000
 ElectricEquipment Internal Gains Nominal, MID_3R_NV_RHT WASHING MACHINE,WASHING MACHINE SCHEDULE,MID_3R_NV_RHT,52.00,2.0,84.000,1.615,42.000,0.000,0.000,0.000,1.000,General,0.000,84.000
 ElectricEquipment Internal Gains Nominal, TOP_3R_NV_MID WASHING MACHINE,WASHING MACHINE SCHEDULE,TOP_3R_NV_MID,47.00,2.0,84.000,1.787,42.000,0.000,0.000,0.000,1.000,General,0.000,84.000
 ElectricEquipment Internal Gains Nominal, TOP_5R_NV WASHING MACHINE,WASHING MACHINE SCHEDULE,TOP_5R_NV,94.00,2.0,84.000,0.894,42.000,0.000,0.000,0.000,1.000,General,0.000,84.000
 ElectricEquipment Internal Gains Nominal, TOP_3R_NV_RHT WASHING MACHINE,WASHING MACHINE SCHEDULE,TOP_3R_NV_RHT,52.00,2.0,84.000,1.615,42.000,0.000,0.000,0.000,1.000,General,0.000,84.000
 ElectricEquipment Internal Gains Nominal, MID_5R_NV WASHING MACHINE,WASHING MACHINE SCHEDULE,MID_5R_NV,94.00,2.0,84.000,0.894,42.000,0.000,0.000,0.000,1.000,General,0.000,84.000
 ElectricEquipment Internal Gains Nominal, MID_3R_NV_LFT WASHING MACHINE,WASHING MACHINE SCHEDULE,MID_3R_NV_LFT,47.00,2.0,84.000,1.787,42.000,0.000,0.000,0.000,1.000,General,0.000,84.000
 ElectricEquipment Internal Gains Nominal, MID_3R_NV_MID WASHING MACHINE,WASHING MACHINE SCHEDULE,MID_3R_NV_MID,47.00,2.0,84.000,1.787,42.000,0.000,0.000,0.000,1.000,General,0.000,84.000
 ElectricEquipment Internal Gains Nominal, TOP_3R_NV_LFT WASHING MACHINE,WASHING MACHINE SCHEDULE,TOP_3R_NV_LFT,47.00,2.0,84.000,1.787,42.000,0.000,0.000,0.000,1.000,General,0.000,84.000
 ElectricEquipment Internal Gains Nominal, MID_3R_NV_RHT REFRIGERATOR,REFRIGERATOR SCHEDULE,MID_3R_NV_RHT,52.00,2.0,106.000,2.038,53.000,0.000,0.000,0.000,1.000,General,106.000,106.000
 ElectricEquipment Internal Gains Nominal, TOP_3R_NV_MID REFRIGERATOR,REFRIGERATOR SCHEDULE,TOP_3R_NV_MID,47.00,2.0,106.000,2.255,53.000,0.000,0.000,0.000,1.000,General,106.000,106.000
 ElectricEquipment Internal Gains Nominal, TOP_5R_NV REFRIGERATOR,REFRIGERATOR SCHEDULE,TOP_5R_NV,94.00,2.0,106.000,1.128,53.000,0.000,0.000,0.000,1.000,General,106.000,106.000
 ElectricEquipment Internal Gains Nominal, TOP_3R_NV_RHT REFRIGERATOR,REFRIGERATOR SCHEDULE,TOP_3R_NV_RHT,52.00,2.0,106.000,2.038,53.000,0.000,0.000,0.000,1.000,General,106.000,106.000
 ElectricEquipment Internal Gains Nominal, MID_5R_NV REFRIGERATOR,REFRIGERATOR SCHEDULE,MID_5R_NV,94.00,2.0,106.000,1.128,53.000,0.000,0.000,0.000,1.000,General,106.000,106.000
 ElectricEquipment Internal Gains Nominal, MID_3R_NV_LFT REFRIGERATOR,REFRIGERATOR SCHEDULE,MID_3R_NV_LFT,47.00,2.0,106.000,2.255,53.000,0.000,0.000,0.000,1.000,General,106.000,106.000
 ElectricEquipment Internal Gains Nominal, MID_3R_NV_MID REFRIGERATOR,REFRIGERATOR SCHEDULE,MID_3R_NV_MID,47.00,2.0,106.000,2.255,53.000,0.000,0.000,0.000,1.000,General,106.000,106.000
 ElectricEquipment Internal Gains Nominal, TOP_3R_NV_LFT REFRIGERATOR,REFRIGERATOR SCHEDULE,TOP_3R_NV_LFT,47.00,2.0,106.000,2.255,53.000,0.000,0.000,0.000,1.000,General,106.000,106.000
 ElectricEquipment Internal Gains Nominal, MID_3R_NV_RHT TV,TV SCHEDULE,MID_3R_NV_RHT,52.00,2.0,176.000,3.385,88.000,0.000,0.000,0.000,1.000,General,0.000,176.000
 ElectricEquipment Internal Gains Nominal, TOP_3R_NV_MID TV,TV SCHEDULE,TOP_3R_NV_MID,47.00,2.0,176.000,3.745,88.000,0.000,0.000,0.000,1.000,General,0.000,176.000
 ElectricEquipment Internal Gains Nominal, TOP_5R_NV TV,TV SCHEDULE,TOP_5R_NV,94.00,2.0,176.000,1.872,88.000,0.000,0.000,0.000,1.000,General,0.000,176.000
 ElectricEquipment Internal Gains Nominal, TOP_3R_NV_RHT TV,TV SCHEDULE,TOP_3R_NV_RHT,52.00,2.0,176.000,3.385,88.000,0.000,0.000,0.000,1.000,General,0.000,176.000
 ElectricEquipment Internal Gains Nominal, MID_5R_NV TV,TV SCHEDULE,MID_5R_NV,94.00,2.0,176.000,1.872,88.000,0.000,0.000,0.000,1.000,General,0.000,176.000
 ElectricEquipment Internal Gains Nominal, MID_3R_NV_LFT TV,TV SCHEDULE,MID_3R_NV_LFT,47.00,2.0,176.000,3.745,88.000,0.000,0.000,0.000,1.000,General,0.000,176.000
 ElectricEquipment Internal Gains Nominal, MID_3R_NV_MID TV,TV SCHEDULE,MID_3R_NV_MID,47.00,2.0,176.000,3.745,88.000,0.000,0.000,0.000,1.000,General,0.000,176.000
 ElectricEquipment Internal Gains Nominal, TOP_3R_NV_LFT TV,TV SCHEDULE,TOP_3R_NV_LFT,47.00,2.0,176.000,3.745,88.000,0.000,0.000,0.000,1.000,General,0.000,176.000
 ElectricEquipment Internal Gains Nominal, MID_3R_NV_RHT COMPUTER,COMPUTER SCHEDULE,MID_3R_NV_RHT,52.00,2.0,115.000,2.212,57.500,0.000,0.000,0.000,1.000,General,0.000,115.000
 ElectricEquipment Internal Gains Nominal, TOP_3R_NV_MID COMPUTER,COMPUTER SCHEDULE,TOP_3R_NV_MID,47.00,2.0,115.000,2.447,57.500,0.000,0.000,0.000,1.000,General,0.000,115.000
 ElectricEquipment Internal Gains Nominal, TOP_5R_NV COMPUTER,COMPUTER SCHEDULE,TOP_5R_NV,94.00,2.0,115.000,1.223,57.500,0.000,0.000,0.000,1.000,General,0.000,115.000
 ElectricEquipment Internal Gains Nominal, TOP_3R_NV_RHT COMPUTER,COMPUTER SCHEDULE,TOP_3R_NV_RHT,52.00,2.0,115.000,2.212,57.500,0.000,0.000,0.000,1.000,General,0.000,115.000
 ElectricEquipment Internal Gains Nominal, MID_5R_NV COMPUTER,COMPUTER SCHEDULE,MID_5R_NV,94.00,2.0,115.000,1.223,57.500,0.000,0.000,0.000,1.000,General,0.000,115.000
 ElectricEquipment Internal Gains Nominal, MID_3R_NV_LFT COMPUTER,COMPUTER SCHEDULE,MID_3R_NV_LFT,47.00,2.0,115.000,2.447,57.500,0.000,0.000,0.000,1.000,General,0.000,115.000
 ElectricEquipment Internal Gains Nominal, MID_3R_NV_MID COMPUTER,COMPUTER SCHEDULE,MID_3R_NV_MID,47.00,2.0,115.000,2.447,57.500,0.000,0.000,0.000,1.000,General,0.000,115.000
 ElectricEquipment Internal Gains Nominal, TOP_3R_NV_LFT COMPUTER,COMPUTER SCHEDULE,TOP_3R_NV_LFT,47.00,2.0,115.000,2.447,57.500,0.000,0.000,0.000,1.000,General,0.000,115.000
 ElectricEquipment Internal Gains Nominal, MID_3R_NV_RHT RICE COOKER,RICE COOKER SCHEDULE,MID_3R_NV_RHT,52.00,2.0,724.000,13.923,362.000,0.000,0.000,0.000,1.000,General,0.000,724.000
 ElectricEquipment Internal Gains Nominal, TOP_3R_NV_MID RICE COOKER,RICE COOKER SCHEDULE,TOP_3R_NV_MID,47.00,2.0,724.000,15.404,362.000,0.000,0.000,0.000,1.000,General,0.000,724.000
 ElectricEquipment Internal Gains Nominal, TOP_5R_NV RICE COOKER,RICE COOKER SCHEDULE,TOP_5R_NV,94.00,2.0,724.000,7.702,362.000,0.000,0.000,0.000,1.000,General,0.000,724.000
 ElectricEquipment Internal Gains Nominal, TOP_3R_NV_RHT RICE COOKER,RICE COOKER SCHEDULE,TOP_3R_NV_RHT,52.00,2.0,724.000,13.923,362.000,0.000,0.000,0.000,1.000,General,0.000,724.000
 ElectricEquipment Internal Gains Nominal, MID_5R_NV RICE COOKER,RICE COOKER SCHEDULE,MID_5R_NV,94.00,2.0,724.000,7.702,362.000,0.000,0.000,0.000,1.000,General,0.000,724.000
 ElectricEquipment Internal Gains Nominal, MID_3R_NV_LFT RICE COOKER,RICE COOKER SCHEDULE,MID_3R_NV_LFT,47.00,2.0,724.000,15.404,362.000,0.000,0.000,0.000,1.000,General,0.000,724.000
 ElectricEquipment Internal Gains Nominal, MID_3R_NV_MID RICE COOKER,RICE COOKER SCHEDULE,MID_3R_NV_MID,47.00,2.0,724.000,15.404,362.000,0.000,0.000,0.000,1.000,General,0.000,724.000
 ElectricEquipment Internal Gains Nominal, TOP_3R_NV_LFT RICE COOKER,RICE COOKER SCHEDULE,TOP_3R_NV_LFT,47.00,2.0,724.000,15.404,362.000,0.000,0.000,0.000,1.000,General,0.000,724.000
! <Construction CTF>,Construction Name,Index,#Layers,#CTFs,Time Step {hours},ThermalConductance {w/m2-K},OuterThermalAbsorptance,InnerThermalAbsorptance,OuterSolarAbsorptance,InnerSolarAbsorptance,Roughness
! <Material CTF Summary>,Material Name,Thickness {m},Conductivity {w/m-K},Density {kg/m3},Specific Heat {J/kg-K},ThermalResistance {m2-K/w}
! <Material:Air>,Material Name,ThermalResistance {m2-K/w}
! <CTF>,Time,Outside,Cross,Inside,Flux (except final one)
 Construction CTF,INTERIOR CEILING,   2,   1,   8,   0.033,      13.00    ,   0.900,   0.900,   0.700,   0.700,MediumRough
 Material CTF Summary,M15 150MM HEAVYWEIGHT CONCRETE,  0.1500,         1.950,   2240.000,      900.000,  0.7692E-01
 CTF,   8,      0.29869283    ,      0.54411582E-09,      0.29869283    ,     -0.21796926E-02
 CTF,   7,      -5.8074635    ,      0.52633089E-06,      -5.8074635    ,      0.43396273E-01
 CTF,   6,       47.157875    ,      0.29612790E-04,       47.157875    ,     -0.36213433    
 CTF,   5,      -208.80401    ,      0.34028370E-03,      -208.80401    ,       1.6538960    
 CTF,   4,       551.74500    ,      0.11219322E-02,       551.74500    ,      -4.5240452    
 CTF,   3,      -892.35562    ,      0.11552970E-02,      -892.35562    ,       7.5994797    
 CTF,   2,       864.61507    ,      0.34202847E-03,       864.61507    ,      -7.6695530    
 CTF,   1,      -460.08899    ,      0.20744555E-04,      -460.08899    ,       4.2609087    
 CTF,   0,       103.24247    ,      0.73224326E-07,       103.24247    
 Construction CTF,INTERIOR FLOOR,   3,   1,   8,   0.033,      13.00    ,   0.900,   0.900,   0.700,   0.700,MediumRough
 Material CTF Summary,M15 150MM HEAVYWEIGHT CONCRETE,  0.1500,         1.950,   2240.000,      900.000,  0.7692E-01
 CTF,   8,      0.29869283    ,      0.54411582E-09,      0.29869283    ,     -0.21796926E-02
 CTF,   7,      -5.8074635    ,      0.52633089E-06,      -5.8074635    ,      0.43396273E-01
 CTF,   6,       47.157875    ,      0.29612790E-04,       47.157875    ,     -0.36213433    
 CTF,   5,      -208.80401    ,      0.34028370E-03,      -208.80401    ,       1.6538960    
 CTF,   4,       551.74500    ,      0.11219322E-02,       551.74500    ,      -4.5240452    
 CTF,   3,      -892.35562    ,      0.11552970E-02,      -892.35562    ,       7.5994797    
 CTF,   2,       864.61507    ,      0.34202847E-03,       864.61507    ,      -7.6695530    
 CTF,   1,      -460.08899    ,      0.20744555E-04,      -460.08899    ,       4.2609087    
 CTF,   0,       103.24247    ,      0.73224326E-07,       103.24247    
 Construction CTF,INTERIOR WALL,   4,   1,   8,   0.033,      5.217    ,   0.900,   0.900,   0.500,   0.500,MediumRough
 Material CTF Summary,M11 100MM LIGHTWEIGHT CONCRETE,  0.1016,         0.530,   1280.000,      840.000,  0.1917    
 CTF,   8,      0.62020695E-01,      0.27570620E-09,      0.62020695E-01,     -0.11052931E-02
 CTF,   7,      -1.3552287    ,      0.28831836E-06,      -1.3552287    ,      0.24767653E-01
 CTF,   6,       12.238780    ,      0.17551368E-04,       12.238780    ,     -0.23037291    
 CTF,   5,      -59.609422    ,      0.21735601E-03,      -59.609422    ,       1.1609498    
 CTF,   4,       171.38251    ,      0.76843045E-03,       171.38251    ,      -3.4691016    
 CTF,   3,      -298.48424    ,      0.84424956E-03,      -298.48424    ,       6.3051953    
 CTF,   2,       308.50121    ,      0.26552672E-03,       308.50121    ,      -6.8243751    
 CTF,   1,      -173.65341    ,      0.17060211E-04,      -173.65341    ,       4.0336338    
 CTF,   0,       40.919919    ,      0.63852298E-07,       40.919919    
 Construction CTF,EXTERIOR ROOF,   5,   4,  17,   0.033,      3.037    ,   0.900,   0.900,   0.700,   0.700,MediumRough
 Material CTF Summary,FERROCEMENT,  0.0300,         0.836,   1280.000,      900.000,  0.3589E-01
 Material:Air,F05 CEILING AIR SPACE RESISTANCE,  0.1800    
 Material CTF Summary,ROOF CONCRETE,  0.1500,         1.442,   2240.000,      900.000,  0.1040    
 Material CTF Summary,CEMENT PLASTER,  0.0050,         0.533,   1280.000,      840.000,  0.9381E-02
 CTF,  17,     -0.78368024E-12,      0.42857764E-22,     -0.45761948E-10,      0.20260497E-16
 CTF,  16,      0.16508074E-07,     -0.19089599E-18,      0.12914871E-06,     -0.35516335E-11
 CTF,  15,     -0.10967419E-04,     -0.19750812E-15,     -0.19306860E-04,      0.10029644E-07
 CTF,  14,      0.71794155E-03,     -0.30094747E-13,      0.96521361E-03,     -0.13190618E-05
 CTF,  13,     -0.20208420E-01,      0.13890912E-12,     -0.24336665E-01,      0.51105832E-04
 CTF,  12,      0.32561486    ,      0.32356902E-11,      0.37078522    ,     -0.10206122E-02
 CTF,  11,      -3.3954331    ,      0.32741715E-09,      -3.7494079    ,      0.12612273E-01
 CTF,  10,       24.455615    ,      0.54809773E-08,       26.554044    ,     -0.10509418    
 CTF,   9,      -126.32741    ,      0.54529243E-07,      -136.00697    ,      0.61856918    
 CTF,   8,       478.31963    ,      0.22601443E-06,       513.28925    ,      -2.6393540    
 CTF,   7,      -1342.2728    ,      0.53436297E-06,      -1440.4774    ,       8.2725553    
 CTF,   6,       2798.3775    ,      0.49249115E-06,       3009.6957    ,      -19.116093    
 CTF,   5,      -4308.1309    ,      0.36593061E-06,      -4650.2920    ,       32.399032    
 CTF,   4,       4819.4904    ,     -0.53553522E-07,       5226.7024    ,      -39.661856    
 CTF,   3,      -3799.9708    ,      0.10068509E-06,      -4144.0800    ,       34.037625    
 CTF,   2,       1997.4720    ,     -0.54559712E-07,       2192.3608    ,      -19.383328    
 CTF,   1,      -627.16597    ,      0.18466759E-07,      -693.35881    ,       6.5663025    
 CTF,   0,       88.841991    ,     -0.28044965E-08,       99.015114    
 Construction CTF,EXTERIOR WALL,   6,   3,  12,   0.067,     0.3114    ,   0.900,   0.900,   0.700,   0.700,MediumRough
 Material CTF Summary,M15 150MM HEAVYWEIGHT CONCRETE,  0.1500,         1.950,   2240.000,      900.000,  0.7692E-01
 Material CTF Summary,POLYETHYLENE,  0.0750,         0.024,     24.000,      303.000,   3.125    
 Material CTF Summary,CEMENT PLASTER,  0.0050,         0.533,   1280.000,      840.000,  0.9381E-02
 CTF,  12,      0.81283440E-11,     -0.47281497E-14,      0.19090310E-07,     -0.48103965E-13
 CTF,  11,     -0.14617254E-06,      0.23351299E-13,     -0.46555466E-05,      0.86506521E-09
 CTF,  10,      0.34748618E-04,      0.37871350E-11,      0.32153682E-03,     -0.20744173E-06
 CTF,   9,     -0.23148778E-02,      0.10730957E-08,     -0.10339769E-01,      0.14118271E-04
 CTF,   8,      0.70847273E-01,      0.78611235E-07,      0.18195949    ,     -0.44524377E-03
 CTF,   7,      -1.1653471    ,      0.18824949E-05,      -1.8892333    ,      0.76166393E-02
 CTF,   6,       11.047082    ,      0.16539793E-04,       12.077386    ,     -0.75835209E-01
 CTF,   5,      -62.621483    ,      0.55717624E-04,      -48.689246    ,      0.45583523    
 CTF,   4,       215.71710    ,      0.70691802E-04,       124.67232    ,      -1.6796808    
 CTF,   3,      -448.90655    ,      0.30771898E-04,      -200.43948    ,       3.7677060    
 CTF,   2,       544.86095    ,      0.36172397E-05,       194.60750    ,      -4.9565658    
 CTF,   1,      -352.15147    ,      0.76626675E-07,      -103.76662    ,       3.4807792    
 CTF,   0,       93.151331    ,      0.36262966E-08,       23.255626    
 Construction CTF,EXTERIOR FLOOR,   7,   1,   8,   0.033,      13.00    ,   0.900,   0.900,   0.700,   0.700,MediumRough
 Material CTF Summary,M15 150MM HEAVYWEIGHT CONCRETE,  0.1500,         1.950,   2240.000,      900.000,  0.7692E-01
 CTF,   8,      0.29869283    ,      0.54411582E-09,      0.29869283    ,     -0.21796926E-02
 CTF,   7,      -5.8074635    ,      0.52633089E-06,      -5.8074635    ,      0.43396273E-01
 CTF,   6,       47.157875    ,      0.29612790E-04,       47.157875    ,     -0.36213433    
 CTF,   5,      -208.80401    ,      0.34028370E-03,      -208.80401    ,       1.6538960    
 CTF,   4,       551.74500    ,      0.11219322E-02,       551.74500    ,      -4.5240452    
 CTF,   3,      -892.35562    ,      0.11552970E-02,      -892.35562    ,       7.5994797    
 CTF,   2,       864.61507    ,      0.34202847E-03,       864.61507    ,      -7.6695530    
 CTF,   1,      -460.08899    ,      0.20744555E-04,      -460.08899    ,       4.2609087    
 CTF,   0,       103.24247    ,      0.73224326E-07,       103.24247    
 Construction CTF,COOL WALL,   8,   3,  12,   0.067,     0.3114    ,   0.900,   0.900,   0.400,   0.700,MediumRough
 Material CTF Summary,COOL CONCRETE,  0.1500,         1.950,   2240.000,      900.000,  0.7692E-01
 Material CTF Summary,POLYETHYLENE,  0.0750,         0.024,     24.000,      303.000,   3.125    
 Material CTF Summary,CEMENT PLASTER,  0.0050,         0.533,   1280.000,      840.000,  0.9381E-02
 CTF,  12,      0.81283440E-11,     -0.47281497E-14,      0.19090310E-07,     -0.48103965E-13
 CTF,  11,     -0.14617254E-06,      0.23351299E-13,     -0.46555466E-05,      0.86506521E-09
 CTF,  10,      0.34748618E-04,      0.37871350E-11,      0.32153682E-03,     -0.20744173E-06
 CTF,   9,     -0.23148778E-02,      0.10730957E-08,     -0.10339769E-01,      0.14118271E-04
 CTF,   8,      0.70847273E-01,      0.78611235E-07,      0.18195949    ,     -0.44524377E-03
 CTF,   7,      -1.1653471    ,      0.18824949E-05,      -1.8892333    ,      0.76166393E-02
 CTF,   6,       11.047082    ,      0.16539793E-04,       12.077386    ,     -0.75835209E-01
 CTF,   5,      -62.621483    ,      0.55717624E-04,      -48.689246    ,      0.45583523    
 CTF,   4,       215.71710    ,      0.70691802E-04,       124.67232    ,      -1.6796808    
 CTF,   3,      -448.90655    ,      0.30771898E-04,      -200.43948    ,       3.7677060    
 CTF,   2,       544.86095    ,      0.36172397E-05,       194.60750    ,      -4.9565658    
 CTF,   1,      -352.15147    ,      0.76626675E-07,      -103.76662    ,       3.4807792    
 CTF,   0,       93.151331    ,      0.36262966E-08,       23.255626    
! <WindowConstruction>,Construction Name,Index,#Layers,Roughness,Conductance {W/m2-K},SHGC,Solar Transmittance at Normal Incidence,Visible Transmittance at Normal Incidence
! <WindowMaterial:Glazing>, Material Name, Optical Data Type, Spectral Data Set Name, Thickness {m}, Solar Transmittance,Front Solar Reflectance, Back Solar Reflectance, Visible Transmittance, Front Visible Reflectance,Back Visible Reflectance,Infrared Transmittance, Front Thermal Emissivity, Back Thermal Emissivity,Conductivity {W/m-K},Dirt Factor,Solar Diffusing
 WindowConstruction,EXTERIOR WINDOW,1,1,VerySmooth,5.778,0.862,0.837,0.898
 WindowMaterial:Glazing,CLEAR 6MM,SpectralAverage,,6.00000E-003,0.83700,7.50000E-002,7.50000E-002,0.89800,8.10000E-002,8.10000E-002,0.00000,0.84000,0.84000,0.90000,1.00000,No
! <Shadowing/Sun Position Calculations Annual Simulations>, Shading Calculation Method, Shading Calculation Update Frequency Method, Shading Calculation Update Frequency {days}, Maximum Figures in Shadow Overlap Calculations {}, Polygon Clipping Algorithm, Pixel Counting Resolution, Sky Diffuse Modeling Algorithm, Output External Shading Calculation Results, Disable Self-Shading Within Shading Zone Groups, Disable Self-Shading From Shading Zone Groups to Other Zones
Shadowing/Sun Position Calculations Annual Simulations,PolygonClipping,Periodic,20,15000,SutherlandHodgman,512,SimpleSkyDiffuseModeling,No,No,No
! <Surface Convection Parameters>, Surface Name, Outside Model Assignment, Outside Area [m2], Outside Perimeter [m], Outside Height [m], Inside Model Assignment, Inside Height [m], Inside Perimeter Envelope [m], Inside Hydraulic Diameter [m], Window Wall Ratio, Window Location, Near Radiant {Yes/No}, Has Active HVAC {Yes/No}
Surface Convection Parameters,60E3AE,0,0.00,0.00,0.00,0,3.60,8.49,4.42,0.21,0,No,No
Surface Convection Parameters,11F539,0,0.00,0.00,0.00,0,3.60,8.49,4.42,0.21,0,No,No
Surface Convection Parameters,F50B24,0,0.00,0.00,0.00,0,3.60,8.49,4.42,0.21,0,No,No
Surface Convection Parameters,3C8DB6,0,0.00,0.00,0.00,0,3.60,8.49,4.42,0.21,0,No,No
Surface Convection Parameters,22F258,0,0.00,0.00,0.00,0,3.60,8.49,4.42,0.21,0,No,No
Surface Convection Parameters,86D15C,0,0.00,0.00,0.00,0,3.60,8.49,4.42,0.21,0,No,No
Surface Convection Parameters,184EEE,0,0.00,0.00,0.00,0,3.60,8.49,4.42,0.21,0,No,No
Surface Convection Parameters,FB8D0E,0,280.42,221.39,34.40,0,3.60,8.49,4.42,0.21,4,No,No
Surface Convection Parameters,BDBF90,0,280.42,221.39,34.40,0,3.60,8.49,4.42,0.21,2,No,No
Surface Convection Parameters,D61763,0,280.42,221.39,34.40,0,3.60,8.49,4.42,0.21,1,No,No
Surface Convection Parameters,BBB520,0,0.00,0.00,0.00,0,3.60,8.49,4.42,0.21,0,No,No
Surface Convection Parameters,E6790B,0,0.00,0.00,0.00,0,3.60,8.49,4.42,0.21,0,No,No
Surface Convection Parameters,500A08,0,280.41,215.10,34.40,0,3.60,8.49,4.42,0.21,3,No,No
Surface Convection Parameters,5D0225,0,280.41,215.10,34.40,0,3.60,8.49,4.42,0.21,2,No,No
Surface Convection Parameters,E7AD5B,0,255.41,210.95,34.40,0,3.60,8.49,4.42,0.21,3,No,No
Surface Convection Parameters,7F973B,0,0.00,0.00,0.00,0,3.60,8.49,4.42,0.21,0,No,No
Surface Convection Parameters,2F4E56,0,280.42,221.39,34.40,0,3.60,8.49,4.42,0.21,4,No,No
Surface Convection Parameters,476DED,0,280.42,221.39,34.40,0,3.60,8.49,4.42,0.21,1,No,No
Surface Convection Parameters,11A61F,0,0.00,0.00,0.00,0,3.60,8.49,4.42,0.21,0,No,No
Surface Convection Parameters,8A0498,0,0.00,0.00,0.00,0,3.60,8.49,4.42,0.21,0,No,No
Surface Convection Parameters,FE69DB,0,0.00,0.00,0.00,0,3.60,8.49,4.42,0.21,0,No,No
Surface Convection Parameters,E3193F,0,0.00,0.00,0.00,0,3.60,8.49,4.42,0.21,0,No,No
Surface Convection Parameters,F581E9,0,0.00,0.00,0.00,0,3.60,8.49,4.42,0.21,0,No,No
Surface Convection Parameters,AA4BEC,0,0.00,0.00,0.00,0,3.60,8.49,4.42,0.21,0,No,No
Surface Convection Parameters,3CAD39,0,0.00,0.00,0.00,0,3.60,29.15,6.82,7.55E-002,0,No,No
Surface Convection Parameters,5F1461,0,280.42,221.39,34.40,0,3.60,29.15,6.82,7.55E-002,4,No,No
Surface Convection Parameters,328801,0,280.42,221.39,34.40,0,3.60,29.15,6.82,7.55E-002,1,No,No
Surface Convection Parameters,4D1BF7,0,255.41,210.95,34.40,0,3.60,29.15,6.82,7.55E-002,3,No,No
Surface Convection Parameters,379398,0,280.42,221.39,34.40,0,3.60,29.15,6.82,7.55E-002,4,No,No
Surface Convection Parameters,A5FD0B,0,280.42,221.39,34.40,0,3.60,29.15,6.82,7.55E-002,1,No,No
Surface Convection Parameters,22017D,0,280.42,221.39,34.40,0,3.60,29.15,6.82,7.55E-002,1,No,No
Surface Convection Parameters,17224B,0,228.20,221.39,34.40,0,3.60,29.15,6.82,7.55E-002,3,No,No
Surface Convection Parameters,FF9093,0,280.42,221.39,34.40,0,3.60,29.15,6.82,7.55E-002,3,No,No
Surface Convection Parameters,677367,0,228.20,221.39,34.40,0,3.60,29.15,6.82,7.55E-002,3,No,No
Surface Convection Parameters,A9FB06,0,280.42,221.39,34.40,0,3.60,29.15,6.82,7.55E-002,3,No,No
Surface Convection Parameters,2BBF6A,0,0.00,0.00,0.00,0,3.60,29.15,6.82,7.55E-002,0,No,No
Surface Convection Parameters,1596C2,0,0.00,0.00,0.00,0,3.60,29.15,6.82,7.55E-002,0,No,No
Surface Convection Parameters,4F6FA7,0,0.00,0.00,0.00,0,3.60,29.15,6.82,7.55E-002,0,No,No
Surface Convection Parameters,34A94F,0,0.00,0.00,0.00,0,3.60,29.15,6.82,7.55E-002,0,No,No
Surface Convection Parameters,1D28C2,0,0.00,0.00,0.00,0,3.60,29.15,6.82,7.55E-002,0,No,No
Surface Convection Parameters,C02BC7,0,0.00,0.00,0.00,0,3.60,29.15,6.82,7.55E-002,0,No,No
Surface Convection Parameters,1F98F7,0,0.00,0.00,0.00,0,3.60,29.15,6.82,7.55E-002,0,No,No
Surface Convection Parameters,1D88C5,0,280.41,215.10,34.40,0,3.60,29.15,6.82,7.55E-002,3,No,No
Surface Convection Parameters,F52E84,0,228.20,221.39,34.40,0,3.60,29.15,6.82,7.55E-002,4,No,No
Surface Convection Parameters,C127F1,0,280.41,215.10,34.40,0,3.60,29.15,6.82,7.55E-002,3,No,No
Surface Convection Parameters,F559FB,0,280.41,215.10,34.40,0,3.60,29.15,6.82,7.55E-002,2,No,No
Surface Convection Parameters,6219BC,0,280.41,215.10,34.40,0,3.60,29.15,6.82,7.55E-002,2,No,No
Surface Convection Parameters,90AF14,0,255.41,210.95,34.40,0,3.60,29.15,6.82,7.55E-002,4,No,No
Surface Convection Parameters,C43240,0,280.42,221.39,34.40,0,3.60,29.15,6.82,7.55E-002,3,No,No
Surface Convection Parameters,E44A8B,0,0.00,0.00,0.00,0,3.60,29.15,6.82,7.55E-002,0,No,No
Surface Convection Parameters,993BB2,0,0.00,0.00,0.00,0,3.60,29.15,6.82,7.55E-002,0,No,No
Surface Convection Parameters,9B8728,0,0.00,0.00,0.00,0,3.60,29.15,6.82,7.55E-002,0,No,No
Surface Convection Parameters,1B0F1F,0,0.00,0.00,0.00,0,3.60,29.15,6.82,7.55E-002,0,No,No
Surface Convection Parameters,315AE6,0,0.00,0.00,0.00,0,3.60,29.15,6.82,7.55E-002,0,No,No
Surface Convection Parameters,697848,0,0.00,0.00,0.00,0,3.60,29.15,6.82,7.55E-002,0,No,No
Surface Convection Parameters,19E03E,0,0.00,0.00,0.00,0,3.60,29.15,6.82,7.55E-002,0,No,No
Surface Convection Parameters,69F9F2,0,0.00,0.00,0.00,0,3.60,29.15,6.82,7.55E-002,0,No,No
Surface Convection Parameters,B22655,0,228.20,221.39,34.40,0,2.80,29.15,6.82,9.70E-002,4,No,No
Surface Convection Parameters,EB1FCD,0,0.00,0.00,0.00,0,2.80,29.15,6.82,9.70E-002,0,No,No
Surface Convection Parameters,999A8C,0,280.42,221.39,34.40,0,2.80,29.15,6.82,9.70E-002,3,No,No
Surface Convection Parameters,184CBE,0,280.42,221.39,34.40,0,2.80,29.15,6.82,9.70E-002,2,No,No
Surface Convection Parameters,8EACF0,0,255.41,210.95,34.40,0,2.80,29.15,6.82,9.70E-002,4,No,No
Surface Convection Parameters,E8F7AE,0,280.42,221.39,34.40,0,2.80,29.15,6.82,9.70E-002,3,No,No
Surface Convection Parameters,878591,0,280.42,221.39,34.40,0,2.80,29.15,6.82,9.70E-002,2,No,No
Surface Convection Parameters,E3D83D,0,280.42,221.39,34.40,0,2.80,29.15,6.82,9.70E-002,2,No,No
Surface Convection Parameters,B9503E,0,228.20,221.39,34.40,0,2.80,29.15,6.82,9.70E-002,3,No,No
Surface Convection Parameters,487A7A,0,280.42,221.39,34.40,0,2.80,29.15,6.82,9.70E-002,3,No,No
Surface Convection Parameters,740B46,0,280.42,221.39,34.40,0,2.80,29.15,6.82,9.70E-002,3,No,No
Surface Convection Parameters,AD6C5F,0,0.00,0.00,0.00,0,2.80,29.15,6.82,9.70E-002,0,No,No
Surface Convection Parameters,3FB3A4,0,0.00,0.00,0.00,0,2.80,29.15,6.82,9.70E-002,0,No,No
Surface Convection Parameters,9E64DB,0,0.00,0.00,0.00,0,2.80,29.15,6.82,9.70E-002,0,No,No
Surface Convection Parameters,BE5C55,0,0.00,0.00,0.00,0,2.80,29.15,6.82,9.70E-002,0,No,No
Surface Convection Parameters,F528D6,0,0.00,0.00,0.00,0,2.80,29.15,6.82,9.70E-002,0,No,No
Surface Convection Parameters,F7DE3D,0,0.00,0.00,0.00,0,2.80,29.15,6.82,9.70E-002,0,No,No
Surface Convection Parameters,BCADCB,0,0.00,0.00,0.00,0,2.80,29.15,6.82,9.70E-002,0,No,No
Surface Convection Parameters,8877FE,0,280.41,215.10,34.40,0,2.80,29.15,6.82,9.70E-002,3,No,No
Surface Convection Parameters,FB0386,0,228.20,221.39,34.40,0,2.80,29.15,6.82,9.70E-002,3,No,No
Surface Convection Parameters,304505,0,280.41,215.10,34.40,0,2.80,29.15,6.82,9.70E-002,3,No,No
Surface Convection Parameters,AD95CD,0,280.41,215.10,34.40,0,2.80,29.15,6.82,9.70E-002,2,No,No
Surface Convection Parameters,8AAD0C,0,280.41,215.10,34.40,0,2.80,29.15,6.82,9.70E-002,2,No,No
Surface Convection Parameters,7A57F8,0,255.41,210.95,34.40,0,2.80,29.15,6.82,9.70E-002,3,No,No
Surface Convection Parameters,B9856D,0,280.42,221.39,34.40,0,2.80,29.15,6.82,9.70E-002,4,No,No
Surface Convection Parameters,45A47E,0,0.00,0.00,0.00,0,2.80,29.15,6.82,9.70E-002,0,No,No
Surface Convection Parameters,7E57B2,0,0.00,0.00,0.00,0,2.80,29.15,6.82,9.70E-002,0,No,No
Surface Convection Parameters,B130FA,0,0.00,0.00,0.00,0,2.80,29.15,6.82,9.70E-002,0,No,No
Surface Convection Parameters,AE309E,0,0.00,0.00,0.00,0,2.80,29.15,6.82,9.70E-002,0,No,No
Surface Convection Parameters,441136,0,0.00,0.00,0.00,0,2.80,29.15,6.82,9.70E-002,0,No,No
Surface Convection Parameters,2DECB4,0,0.00,0.00,0.00,0,2.80,29.15,6.82,9.70E-002,0,No,No
Surface Convection Parameters,AA1293,0,358.41,159.05,0.00,0,2.80,29.15,6.82,9.70E-002,0,No,No
Surface Convection Parameters,52D9B6,0,358.41,159.05,0.00,0,2.80,29.15,6.82,9.70E-002,0,No,No
Surface Convection Parameters,43C7FA,0,0.00,0.00,0.00,0,3.03,8.49,4.42,0.27,0,No,No
Surface Convection Parameters,83F6F1,0,0.00,0.00,0.00,0,3.03,8.49,4.42,0.27,0,No,No
Surface Convection Parameters,B06D19,0,0.00,0.00,0.00,0,3.03,8.49,4.42,0.27,0,No,No
Surface Convection Parameters,A41238,0,0.00,0.00,0.00,0,3.03,8.49,4.42,0.27,0,No,No
Surface Convection Parameters,E4E407,0,0.00,0.00,0.00,0,3.03,8.49,4.42,0.27,0,No,No
Surface Convection Parameters,AE2634,0,0.00,0.00,0.00,0,3.03,8.49,4.42,0.27,0,No,No
Surface Convection Parameters,5B4EDC,0,0.00,0.00,0.00,0,3.03,8.49,4.42,0.27,0,No,No
Surface Convection Parameters,3CA229,0,280.42,221.39,34.40,0,3.03,8.49,4.42,0.27,3,No,No
Surface Convection Parameters,BBFA04,0,280.42,221.39,34.40,0,3.03,8.49,4.42,0.27,2,No,No
Surface Convection Parameters,253C09,0,280.42,221.39,34.40,0,3.03,8.49,4.42,0.27,2,No,No
Surface Convection Parameters,3FA100,0,0.00,0.00,0.00,0,3.03,8.49,4.42,0.27,0,No,No
Surface Convection Parameters,A5DEA4,0,0.00,0.00,0.00,0,3.03,8.49,4.42,0.27,0,No,No
Surface Convection Parameters,2A2747,0,280.41,215.10,34.40,0,3.03,8.49,4.42,0.27,3,No,No
Surface Convection Parameters,414173,0,280.41,215.10,34.40,0,3.03,8.49,4.42,0.27,2,No,No
Surface Convection Parameters,3A0439,0,255.41,210.95,34.40,0,3.03,8.49,4.42,0.27,3,No,No
Surface Convection Parameters,9DCFF7,0,0.00,0.00,0.00,0,3.03,8.49,4.42,0.27,0,No,No
Surface Convection Parameters,5BB072,0,0.00,0.00,0.00,0,3.03,8.49,4.42,0.27,0,No,No
Surface Convection Parameters,A3181A,0,280.42,221.39,34.40,0,3.03,8.49,4.42,0.27,3,No,No
Surface Convection Parameters,331365,0,280.42,221.39,34.40,0,3.03,8.49,4.42,0.27,2,No,No
Surface Convection Parameters,24673B,0,0.00,0.00,0.00,0,3.03,8.49,4.42,0.27,0,No,No
Surface Convection Parameters,829D8A,0,0.00,0.00,0.00,0,3.03,8.49,4.42,0.27,0,No,No
Surface Convection Parameters,D9C72F,0,0.00,0.00,0.00,0,3.03,8.49,4.42,0.27,0,No,No
Surface Convection Parameters,CCAE33,0,358.41,159.05,0.00,0,3.03,8.49,4.42,0.27,0,No,No
Surface Convection Parameters,A1CC73,0,358.41,159.05,0.00,0,3.03,8.49,4.42,0.27,0,No,No
Surface Convection Parameters,AA0EBF,0,0.00,0.00,0.00,0,2.93,8.49,4.42,0.27,0,No,No
Surface Convection Parameters,897177,0,0.00,0.00,0.00,0,2.93,8.49,4.42,0.27,0,No,No
Surface Convection Parameters,4B5297,0,0.00,0.00,0.00,0,2.93,8.49,4.42,0.27,0,No,No
Surface Convection Parameters,B4DC0A,0,0.00,0.00,0.00,0,2.93,8.49,4.42,0.27,0,No,No
Surface Convection Parameters,C8FD29,0,0.00,0.00,0.00,0,2.93,8.49,4.42,0.27,0,No,No
Surface Convection Parameters,9BC0AD,0,0.00,0.00,0.00,0,2.93,8.49,4.42,0.27,0,No,No
Surface Convection Parameters,EC61DF,0,0.00,0.00,0.00,0,2.93,8.49,4.42,0.27,0,No,No
Surface Convection Parameters,5BEA2E,0,280.42,221.39,34.40,0,2.93,8.49,4.42,0.27,3,No,No
Surface Convection Parameters,CE766C,0,280.42,221.39,34.40,0,2.93,8.49,4.42,0.27,2,No,No
Surface Convection Parameters,3737B9,0,280.42,221.39,34.40,0,2.93,8.49,4.42,0.27,2,No,No
Surface Convection Parameters,93ADC8,0,0.00,0.00,0.00,0,2.93,8.49,4.42,0.27,0,No,No
Surface Convection Parameters,33AAA3,0,0.00,0.00,0.00,0,2.93,8.49,4.42,0.27,0,No,No
Surface Convection Parameters,53EDC6,0,280.41,215.10,34.40,0,2.93,8.49,4.42,0.27,3,No,No
Surface Convection Parameters,56A512,0,280.41,215.10,34.40,0,2.93,8.49,4.42,0.27,2,No,No
Surface Convection Parameters,C47F78,0,255.41,210.95,34.40,0,2.93,8.49,4.42,0.27,3,No,No
Surface Convection Parameters,6CAB6C,0,0.00,0.00,0.00,0,2.93,8.49,4.42,0.27,0,No,No
Surface Convection Parameters,F85590,0,280.42,221.39,34.40,0,2.93,8.49,4.42,0.27,3,No,No
Surface Convection Parameters,C5F616,0,280.42,221.39,34.40,0,2.93,8.49,4.42,0.27,2,No,No
Surface Convection Parameters,EE2543,0,0.00,0.00,0.00,0,2.93,8.49,4.42,0.27,0,No,No
Surface Convection Parameters,B017AD,0,0.00,0.00,0.00,0,2.93,8.49,4.42,0.27,0,No,No
Surface Convection Parameters,9A686C,0,0.00,0.00,0.00,0,2.93,8.49,4.42,0.27,0,No,No
Surface Convection Parameters,6C8B67,0,0.00,0.00,0.00,0,2.93,8.49,4.42,0.27,0,No,No
Surface Convection Parameters,932411,0,0.00,0.00,0.00,0,2.93,8.49,4.42,0.27,0,No,No
Surface Convection Parameters,4C3906,0,0.00,0.00,0.00,0,2.93,8.49,4.42,0.27,0,No,No
Surface Convection Parameters,6B463D,0,0.00,0.00,0.00,0,2.80,29.15,6.82,9.70E-002,0,No,No
Surface Convection Parameters,E3B14D,0,280.42,221.39,34.40,0,2.80,29.15,6.82,9.70E-002,3,No,No
Surface Convection Parameters,B39D0F,0,280.42,221.39,34.40,0,2.80,29.15,6.82,9.70E-002,2,No,No
Surface Convection Parameters,510402,0,255.41,210.95,34.40,0,2.80,29.15,6.82,9.70E-002,4,No,No
Surface Convection Parameters,E67E0A,0,280.42,221.39,34.40,0,2.80,29.15,6.82,9.70E-002,3,No,No
Surface Convection Parameters,7F89F3,0,280.42,221.39,34.40,0,2.80,29.15,6.82,9.70E-002,2,No,No
Surface Convection Parameters,247208,0,280.42,221.39,34.40,0,2.80,29.15,6.82,9.70E-002,2,No,No
Surface Convection Parameters,66F1DB,0,228.20,221.39,34.40,0,2.80,29.15,6.82,9.70E-002,4,No,No
Surface Convection Parameters,300191,0,280.42,221.39,34.40,0,2.80,29.15,6.82,9.70E-002,3,No,No
Surface Convection Parameters,EDFCDA,0,228.20,221.39,34.40,0,2.80,29.15,6.82,9.70E-002,3,No,No
Surface Convection Parameters,C21C53,0,280.42,221.39,34.40,0,2.80,29.15,6.82,9.70E-002,4,No,No
Surface Convection Parameters,18C7FD,0,0.00,0.00,0.00,0,2.80,29.15,6.82,9.70E-002,0,No,No
Surface Convection Parameters,956869,0,0.00,0.00,0.00,0,2.80,29.15,6.82,9.70E-002,0,No,No
Surface Convection Parameters,8046BE,0,0.00,0.00,0.00,0,2.80,29.15,6.82,9.70E-002,0,No,No
Surface Convection Parameters,EF5B77,0,0.00,0.00,0.00,0,2.80,29.15,6.82,9.70E-002,0,No,No
Surface Convection Parameters,DE56BF,0,0.00,0.00,0.00,0,2.80,29.15,6.82,9.70E-002,0,No,No
Surface Convection Parameters,78B2F7,0,0.00,0.00,0.00,0,2.80,29.15,6.82,9.70E-002,0,No,No
Surface Convection Parameters,28A0B3,0,0.00,0.00,0.00,0,2.80,29.15,6.82,9.70E-002,0,No,No
Surface Convection Parameters,CF9255,0,280.41,215.10,34.40,0,2.80,29.15,6.82,9.70E-002,4,No,No
Surface Convection Parameters,3463F1,0,228.20,221.39,34.40,0,2.80,29.15,6.82,9.70E-002,3,No,No
Surface Convection Parameters,452853,0,280.41,215.10,34.40,0,2.80,29.15,6.82,9.70E-002,3,No,No
Surface Convection Parameters,77EFE6,0,280.41,215.10,34.40,0,2.80,29.15,6.82,9.70E-002,2,No,No
Surface Convection Parameters,56D0A6,0,280.41,215.10,34.40,0,2.80,29.15,6.82,9.70E-002,2,No,No
Surface Convection Parameters,73E906,0,255.41,210.95,34.40,0,2.80,29.15,6.82,9.70E-002,3,No,No
Surface Convection Parameters,87B661,0,280.42,221.39,34.40,0,2.80,29.15,6.82,9.70E-002,3,No,No
Surface Convection Parameters,AE92BF,0,0.00,0.00,0.00,0,2.80,29.15,6.82,9.70E-002,0,No,No
Surface Convection Parameters,498A0F,0,0.00,0.00,0.00,0,2.80,29.15,6.82,9.70E-002,0,No,No
Surface Convection Parameters,A58DB1,0,0.00,0.00,0.00,0,2.80,29.15,6.82,9.70E-002,0,No,No
Surface Convection Parameters,20742C,0,0.00,0.00,0.00,0,2.80,29.15,6.82,9.70E-002,0,No,No
Surface Convection Parameters,4681C1,0,0.00,0.00,0.00,0,2.80,29.15,6.82,9.70E-002,0,No,No
Surface Convection Parameters,5ACFA8,0,0.00,0.00,0.00,0,2.80,29.15,6.82,9.70E-002,0,No,No
Surface Convection Parameters,9055CE,0,0.00,0.00,0.00,0,2.80,29.15,6.82,9.70E-002,0,No,No
Surface Convection Parameters,9F1D2E,0,0.00,0.00,0.00,0,2.80,29.15,6.82,9.70E-002,0,No,No
Surface Convection Parameters,2AEC09,0,0.00,0.00,0.00,0,3.60,13.37,4.74,7.55E-002,0,No,No
Surface Convection Parameters,C37183,0,0.00,0.00,0.00,0,3.60,13.37,4.74,7.55E-002,0,No,No
Surface Convection Parameters,8B0418,0,280.41,215.10,34.40,0,3.60,13.37,4.74,7.55E-002,3,No,No
Surface Convection Parameters,1C8687,0,280.41,215.10,34.40,0,3.60,13.37,4.74,7.55E-002,2,No,No
Surface Convection Parameters,548844,0,228.20,221.39,34.40,0,3.60,13.37,4.74,7.55E-002,4,No,No
Surface Convection Parameters,36B370,0,280.42,221.39,34.40,0,3.60,13.37,4.74,7.55E-002,3,No,No
Surface Convection Parameters,EC5ADB,0,280.42,221.39,34.40,0,3.60,13.37,4.74,7.55E-002,2,No,No
Surface Convection Parameters,142241,0,0.00,0.00,0.00,0,3.60,13.37,4.74,7.55E-002,0,No,No
Surface Convection Parameters,41F75B,0,0.00,0.00,0.00,0,3.60,13.37,4.74,7.55E-002,0,No,No
Surface Convection Parameters,A71B75,0,255.41,210.95,34.40,0,3.60,14.87,5.37,0.12,4,No,No
Surface Convection Parameters,27CF50,0,228.20,221.39,34.40,0,3.60,14.87,5.37,0.12,4,No,No
Surface Convection Parameters,332755,0,0.00,0.00,0.00,0,3.60,14.87,5.37,0.12,0,No,No
Surface Convection Parameters,673F71,0,0.00,0.00,0.00,0,3.60,14.87,5.37,0.12,0,No,No
Surface Convection Parameters,DB79D8,0,280.41,215.10,34.40,0,3.60,14.87,5.37,0.12,3,No,No
Surface Convection Parameters,41E445,0,280.41,215.10,34.40,0,3.60,14.87,5.37,0.12,2,No,No
Surface Convection Parameters,DEA40E,0,0.00,0.00,0.00,0,3.60,14.87,5.37,0.12,0,No,No
Surface Convection Parameters,6987BB,0,228.20,221.39,34.40,0,3.60,14.87,5.37,0.12,3,No,No
Surface Convection Parameters,5C1120,0,280.42,221.39,34.40,0,3.60,14.87,5.37,0.12,3,No,No
Surface Convection Parameters,85D0D4,0,280.42,221.39,34.40,0,3.60,14.87,5.37,0.12,2,No,No
Surface Convection Parameters,A4131E,0,280.42,221.39,34.40,0,3.60,14.87,5.37,0.12,2,No,No
Surface Convection Parameters,99D41A,0,280.42,221.39,34.40,0,3.60,14.87,5.37,0.12,3,No,No
Surface Convection Parameters,6EEDA7,0,280.42,221.39,34.40,0,3.60,14.87,5.37,0.12,2,No,No
Surface Convection Parameters,A01467,0,280.42,221.39,34.40,0,3.60,14.87,5.37,0.12,3,No,No
Surface Convection Parameters,3CA1CA,0,0.00,0.00,0.00,0,3.60,14.87,5.37,0.12,0,No,No
Surface Convection Parameters,978F75,0,0.00,0.00,0.00,0,3.60,14.87,5.37,0.12,0,No,No
Surface Convection Parameters,691677,0,255.41,210.95,34.40,0,3.60,14.87,4.62,0.12,3,No,No
Surface Convection Parameters,301B80,0,280.41,215.10,34.40,0,3.60,14.87,4.62,0.12,3,No,No
Surface Convection Parameters,4BBE32,0,280.41,215.10,34.40,0,3.60,14.87,4.62,0.12,2,No,No
Surface Convection Parameters,ACBBE7,0,0.00,0.00,0.00,0,3.60,14.87,4.62,0.12,0,No,No
Surface Convection Parameters,9529E4,0,280.42,221.39,34.40,0,3.60,14.87,4.62,0.12,3,No,No
Surface Convection Parameters,EB2856,0,280.42,221.39,34.40,0,3.60,14.87,4.62,0.12,2,No,No
Surface Convection Parameters,5CAEC0,0,280.42,221.39,34.40,0,3.60,14.87,4.62,0.12,2,No,No
Surface Convection Parameters,ACCA43,0,0.00,0.00,0.00,0,3.60,14.87,4.62,0.12,0,No,No
Surface Convection Parameters,AD982D,0,280.42,221.39,34.40,0,3.60,14.87,4.62,0.12,4,No,No
Surface Convection Parameters,ECE390,0,255.41,210.95,34.40,0,3.60,14.87,4.62,0.12,3,No,No
Surface Convection Parameters,6603F7,0,228.20,221.39,34.40,0,3.60,14.87,4.62,0.12,3,No,No
Surface Convection Parameters,D22F3B,0,0.00,0.00,0.00,0,3.60,14.87,4.62,0.12,0,No,No
Surface Convection Parameters,1955C0,0,280.42,221.39,34.40,0,3.60,14.87,4.62,0.12,3,No,No
Surface Convection Parameters,95D1E0,0,280.42,221.39,34.40,0,3.60,14.87,4.62,0.12,2,No,No
Surface Convection Parameters,67435A,0,0.00,0.00,0.00,0,3.60,14.87,4.62,0.12,0,No,No
Surface Convection Parameters,792D62,0,0.00,0.00,0.00,0,3.60,14.87,4.62,0.12,0,No,No
Surface Convection Parameters,DE3C3D,0,0.00,0.00,0.00,0,3.60,4.53,4.00,0.22,0,No,No
Surface Convection Parameters,3AAC09,0,280.41,215.10,34.40,0,3.60,4.53,4.00,0.22,3,No,No
Surface Convection Parameters,3995BD,0,280.41,215.10,34.40,0,3.60,4.53,4.00,0.22,2,No,No
Surface Convection Parameters,EFF40A,0,0.00,0.00,0.00,0,3.60,4.53,4.00,0.22,0,No,No
Surface Convection Parameters,39BFA5,0,280.42,221.39,34.40,0,3.60,4.53,4.00,0.22,3,No,No
Surface Convection Parameters,AEBE84,0,280.42,221.39,34.40,0,3.60,4.53,4.00,0.22,2,No,No
Surface Convection Parameters,DA650F,0,0.00,0.00,0.00,0,3.60,4.53,4.00,0.22,0,No,No
Surface Convection Parameters,5C4AAD,0,0.00,0.00,0.00,0,3.60,4.53,4.00,0.22,0,No,No
Surface Convection Parameters,7E5526,0,0.00,0.00,0.00,0,3.60,4.53,4.00,0.22,0,No,No
Surface Convection Parameters,C317F2,0,280.42,221.39,34.40,0,3.60,13.37,4.00,7.55E-002,4,No,No
Surface Convection Parameters,44F682,0,280.42,221.39,34.40,0,3.60,13.37,4.00,7.55E-002,1,No,No
Surface Convection Parameters,F985F6,0,0.00,0.00,0.00,0,3.60,13.37,4.00,7.55E-002,0,No,No
Surface Convection Parameters,6F7E7A,0,280.41,215.10,34.40,0,3.60,13.37,4.00,7.55E-002,3,No,No
Surface Convection Parameters,84FDA0,0,280.41,215.10,34.40,0,3.60,13.37,4.00,7.55E-002,2,No,No
Surface Convection Parameters,B7C7BE,0,255.41,210.95,34.40,0,3.60,13.37,4.00,7.55E-002,4,No,No
Surface Convection Parameters,587C8E,0,0.00,0.00,0.00,0,3.60,13.37,4.00,7.55E-002,0,No,No
Surface Convection Parameters,A5F97E,0,0.00,0.00,0.00,0,3.60,13.37,4.00,7.55E-002,0,No,No
Surface Convection Parameters,71D670,0,0.00,0.00,0.00,0,3.60,13.37,4.00,7.55E-002,0,No,No
Surface Convection Parameters,7C6FBE,0,228.20,221.39,34.40,0,3.60,14.87,4.62,0.12,3,No,No
Surface Convection Parameters,78F321,0,280.42,221.39,34.40,0,3.60,14.87,4.62,0.12,4,No,No
Surface Convection Parameters,8FA002,0,280.42,221.39,34.40,0,3.60,14.87,4.62,0.12,1,No,No
Surface Convection Parameters,419EC9,0,0.00,0.00,0.00,0,3.60,14.87,4.62,0.12,0,No,No
Surface Convection Parameters,4ECBB8,0,280.41,215.10,34.40,0,3.60,14.87,4.62,0.12,3,No,No
Surface Convection Parameters,D1A16C,0,280.41,215.10,34.40,0,3.60,14.87,4.62,0.12,2,No,No
Surface Convection Parameters,42DD4E,0,0.00,0.00,0.00,0,3.60,14.87,4.62,0.12,0,No,No
Surface Convection Parameters,63304A,0,0.00,0.00,0.00,0,3.60,14.87,4.62,0.12,0,No,No
Surface Convection Parameters,7CB2FD,0,255.41,210.95,34.40,0,3.60,14.87,4.62,0.12,4,No,No
Surface Convection Parameters,D020FF,0,280.42,221.39,34.40,0,3.60,14.87,4.62,0.12,4,No,No
Surface Convection Parameters,4F36FB,0,255.41,210.95,34.40,0,3.60,14.87,4.62,0.12,4,No,No
Surface Convection Parameters,31ADC0,0,280.42,221.39,34.40,0,3.60,14.87,4.62,0.12,3,No,No
Surface Convection Parameters,597B67,0,280.42,221.39,34.40,0,3.60,14.87,4.62,0.12,2,No,No
Surface Convection Parameters,D9FA58,0,280.42,221.39,34.40,0,3.60,14.87,4.62,0.12,2,No,No
Surface Convection Parameters,B6BC20,0,0.00,0.00,0.00,0,3.60,14.87,4.62,0.12,0,No,No
Surface Convection Parameters,A8EB8C,0,0.00,0.00,0.00,0,3.60,14.87,4.62,0.12,0,No,No
Surface Convection Parameters,EA7C04,0,0.00,0.00,0.00,0,5.58,13.37,4.74,9.71E-002,0,No,No
Surface Convection Parameters,D6C4FE,0,228.20,221.39,34.40,0,5.58,13.37,4.74,9.71E-002,4,No,No
Surface Convection Parameters,FC0A3A,0,280.41,215.10,34.40,0,5.58,13.37,4.74,9.71E-002,3,No,No
Surface Convection Parameters,35802D,0,280.41,215.10,34.40,0,5.58,13.37,4.74,9.71E-002,2,No,No
Surface Convection Parameters,85ED59,0,0.00,0.00,0.00,0,5.58,13.37,4.74,9.71E-002,0,No,No
Surface Convection Parameters,F89961,0,280.42,221.39,34.40,0,5.58,13.37,4.74,9.71E-002,3,No,No
Surface Convection Parameters,CC71D7,0,280.42,221.39,34.40,0,5.58,13.37,4.74,9.71E-002,2,No,No
Surface Convection Parameters,CB0C32,0,0.00,0.00,0.00,0,5.58,13.37,4.74,9.71E-002,0,No,No
Surface Convection Parameters,D36CC0,0,0.00,0.00,0.00,0,5.58,13.37,4.74,9.71E-002,0,No,No
Surface Convection Parameters,76E26E,0,280.42,221.39,34.40,0,2.84,4.53,4.00,0.29,3,No,No
Surface Convection Parameters,3CC912,0,280.42,221.39,34.40,0,2.84,4.53,4.00,0.29,2,No,No
Surface Convection Parameters,7E47DC,0,0.00,0.00,0.00,0,2.84,4.53,4.00,0.29,0,No,No
Surface Convection Parameters,843BF2,0,280.41,215.10,34.40,0,2.84,4.53,4.00,0.29,3,No,No
Surface Convection Parameters,F9E5BE,0,280.41,215.10,34.40,0,2.84,4.53,4.00,0.29,2,No,No
Surface Convection Parameters,988252,0,0.00,0.00,0.00,0,2.84,4.53,4.00,0.29,0,No,No
Surface Convection Parameters,282D14,0,0.00,0.00,0.00,0,2.84,4.53,4.00,0.29,0,No,No
Surface Convection Parameters,BB4848,0,0.00,0.00,0.00,0,2.84,4.53,4.00,0.29,0,No,No
Surface Convection Parameters,403280,0,0.00,0.00,0.00,0,2.84,4.53,4.00,0.29,0,No,No
Surface Convection Parameters,2B918C,0,228.20,221.39,34.40,0,2.81,14.87,4.62,0.15,4,No,No
Surface Convection Parameters,5DFC19,0,280.42,221.39,34.40,0,2.81,14.87,4.62,0.15,3,No,No
Surface Convection Parameters,44DE59,0,280.42,221.39,34.40,0,2.81,14.87,4.62,0.15,2,No,No
Surface Convection Parameters,355F58,0,0.00,0.00,0.00,0,2.81,14.87,4.62,0.15,0,No,No
Surface Convection Parameters,8B4AA2,0,280.41,215.10,34.40,0,2.81,14.87,4.62,0.15,3,No,No
Surface Convection Parameters,2701E7,0,280.41,215.10,34.40,0,2.81,14.87,4.62,0.15,2,No,No
Surface Convection Parameters,9A756A,0,0.00,0.00,0.00,0,2.81,14.87,4.62,0.15,0,No,No
Surface Convection Parameters,2A2CD7,0,0.00,0.00,0.00,0,2.81,14.87,4.62,0.15,0,No,No
Surface Convection Parameters,B6F494,0,255.41,210.95,34.40,0,2.81,14.87,4.62,0.15,3,No,No
Surface Convection Parameters,FC792B,0,280.42,221.39,34.40,0,2.81,14.87,4.62,0.15,3,No,No
Surface Convection Parameters,A43C01,0,255.41,210.95,34.40,0,2.81,14.87,4.62,0.15,4,No,No
Surface Convection Parameters,A7BC2C,0,280.42,221.39,34.40,0,2.81,14.87,4.62,0.15,3,No,No
Surface Convection Parameters,9B19D6,0,280.42,221.39,34.40,0,2.81,14.87,4.62,0.15,2,No,No
Surface Convection Parameters,6C832B,0,280.42,221.39,34.40,0,2.81,14.87,4.62,0.15,2,No,No
Surface Convection Parameters,E65D17,0,0.00,0.00,0.00,0,2.81,14.87,4.62,0.15,0,No,No
Surface Convection Parameters,7DF66C,0,0.00,0.00,0.00,0,2.81,14.87,4.62,0.15,0,No,No
Surface Convection Parameters,909EB2,0,228.20,221.39,34.40,0,4.51,14.87,5.37,0.15,4,No,No
Surface Convection Parameters,B9FAB8,0,280.42,221.39,34.40,0,4.51,14.87,5.37,0.15,3,No,No
Surface Convection Parameters,584446,0,228.20,221.39,34.40,0,4.51,14.87,5.37,0.15,4,No,No
Surface Convection Parameters,72538B,0,0.00,0.00,0.00,0,4.51,14.87,5.37,0.15,0,No,No
Surface Convection Parameters,3D4ED7,0,0.00,0.00,0.00,0,4.51,14.87,5.37,0.15,0,No,No
Surface Convection Parameters,D13485,0,280.41,215.10,34.40,0,4.51,14.87,5.37,0.15,3,No,No
Surface Convection Parameters,E5B936,0,280.41,215.10,34.40,0,4.51,14.87,5.37,0.15,2,No,No
Surface Convection Parameters,9E05A0,0,0.00,0.00,0.00,0,4.51,14.87,5.37,0.15,0,No,No
Surface Convection Parameters,59E82F,0,280.42,221.39,34.40,0,4.51,14.87,5.37,0.15,3,No,No
Surface Convection Parameters,BA17F2,0,280.42,221.39,34.40,0,4.51,14.87,5.37,0.15,2,No,No
Surface Convection Parameters,F9B930,0,255.41,210.95,34.40,0,4.51,14.87,5.37,0.15,3,No,No
Surface Convection Parameters,72D250,0,280.42,221.39,34.40,0,4.51,14.87,5.37,0.15,3,No,No
Surface Convection Parameters,E5EBD1,0,280.42,221.39,34.40,0,4.51,14.87,5.37,0.15,2,No,No
Surface Convection Parameters,9365A7,0,280.42,221.39,34.40,0,4.51,14.87,5.37,0.15,2,No,No
Surface Convection Parameters,772717,0,0.00,0.00,0.00,0,4.51,14.87,5.37,0.15,0,No,No
Surface Convection Parameters,B9D1B2,0,0.00,0.00,0.00,0,4.51,14.87,5.37,0.15,0,No,No
Surface Convection Parameters,FB793D,0,280.42,221.39,34.40,0,2.84,13.37,4.00,9.71E-002,4,No,No
Surface Convection Parameters,562C47,0,280.42,221.39,34.40,0,2.84,13.37,4.00,9.71E-002,1,No,No
Surface Convection Parameters,6E80CA,0,0.00,0.00,0.00,0,2.84,13.37,4.00,9.71E-002,0,No,No
Surface Convection Parameters,E027B2,0,280.41,215.10,34.40,0,2.84,13.37,4.00,9.71E-002,3,No,No
Surface Convection Parameters,765034,0,280.41,215.10,34.40,0,2.84,13.37,4.00,9.71E-002,2,No,No
Surface Convection Parameters,4EEB5E,0,255.41,210.95,34.40,0,2.84,13.37,4.00,9.71E-002,3,No,No
Surface Convection Parameters,2593B2,0,0.00,0.00,0.00,0,2.84,13.37,4.00,9.71E-002,0,No,No
Surface Convection Parameters,10ACA5,0,0.00,0.00,0.00,0,2.84,13.37,4.00,9.71E-002,0,No,No
Surface Convection Parameters,4C88AC,0,0.00,0.00,0.00,0,2.84,13.37,4.00,9.71E-002,0,No,No
Surface Convection Parameters,44E75C,0,228.20,221.39,34.40,0,2.81,14.87,4.62,0.15,4,No,No
Surface Convection Parameters,7A577E,0,280.42,221.39,34.40,0,2.81,14.87,4.62,0.15,3,No,No
Surface Convection Parameters,E56E8F,0,280.42,221.39,34.40,0,2.81,14.87,4.62,0.15,2,No,No
Surface Convection Parameters,75A6EB,0,0.00,0.00,0.00,0,2.81,14.87,4.62,0.15,0,No,No
Surface Convection Parameters,82B7F9,0,280.41,215.10,34.40,0,2.81,14.87,4.62,0.15,3,No,No
Surface Convection Parameters,6C1D12,0,280.41,215.10,34.40,0,2.81,14.87,4.62,0.15,2,No,No
Surface Convection Parameters,D2AF0D,0,0.00,0.00,0.00,0,2.81,14.87,4.62,0.15,0,No,No
Surface Convection Parameters,A6642B,0,0.00,0.00,0.00,0,2.81,14.87,4.62,0.15,0,No,No
Surface Convection Parameters,2A1373,0,255.41,210.95,34.40,0,2.81,14.87,4.62,0.15,4,No,No
Surface Convection Parameters,4C212F,0,280.42,221.39,34.40,0,2.81,14.87,4.62,0.15,3,No,No
Surface Convection Parameters,1DFEF5,0,255.41,210.95,34.40,0,2.81,14.87,4.62,0.15,3,No,No
Surface Convection Parameters,7D02C2,0,280.42,221.39,34.40,0,2.81,14.87,4.62,0.15,4,No,No
Surface Convection Parameters,BC7910,0,280.42,221.39,34.40,0,2.81,14.87,4.62,0.15,1,No,No
Surface Convection Parameters,1E6C14,0,280.42,221.39,34.40,0,2.81,14.87,4.62,0.15,1,No,No
Surface Convection Parameters,20A32F,0,0.00,0.00,0.00,0,2.81,14.87,4.62,0.15,0,No,No
Surface Convection Parameters,3E5458,0,0.00,0.00,0.00,0,2.81,14.87,4.62,0.15,0,No,No
Surface Convection Parameters,607A72,0,0.00,0.00,0.00,0,7.79,13.37,4.74,9.71E-002,0,No,No
Surface Convection Parameters,370F56,0,228.20,221.39,34.40,0,7.79,13.37,4.74,9.71E-002,4,No,No
Surface Convection Parameters,946703,0,280.41,215.10,34.40,0,7.79,13.37,4.74,9.71E-002,3,No,No
Surface Convection Parameters,11F049,0,280.41,215.10,34.40,0,7.79,13.37,4.74,9.71E-002,2,No,No
Surface Convection Parameters,41779A,0,0.00,0.00,0.00,0,7.79,13.37,4.74,9.71E-002,0,No,No
Surface Convection Parameters,5B74C1,0,280.42,221.39,34.40,0,7.79,13.37,4.74,9.71E-002,3,No,No
Surface Convection Parameters,64A9EA,0,280.42,221.39,34.40,0,7.79,13.37,4.74,9.71E-002,2,No,No
Surface Convection Parameters,BA613E,0,0.00,0.00,0.00,0,7.79,13.37,4.74,9.71E-002,0,No,No
Surface Convection Parameters,55F188,0,358.41,159.05,0.00,0,7.79,13.37,4.74,9.71E-002,0,No,No
Surface Convection Parameters,D30172,0,228.20,221.39,34.40,0,2.83,14.87,4.62,0.15,4,No,No
Surface Convection Parameters,A03C9D,0,280.42,221.39,34.40,0,2.83,14.87,4.62,0.15,3,No,No
Surface Convection Parameters,5C02CA,0,280.42,221.39,34.40,0,2.83,14.87,4.62,0.15,2,No,No
Surface Convection Parameters,49DDF4,0,0.00,0.00,0.00,0,2.83,14.87,4.62,0.15,0,No,No
Surface Convection Parameters,AA94FC,0,280.41,215.10,34.40,0,2.83,14.87,4.62,0.15,3,No,No
Surface Convection Parameters,75250A,0,280.41,215.10,34.40,0,2.83,14.87,4.62,0.15,2,No,No
Surface Convection Parameters,5D2093,0,0.00,0.00,0.00,0,2.83,14.87,4.62,0.15,0,No,No
Surface Convection Parameters,1DC386,0,0.00,0.00,0.00,0,2.83,14.87,4.62,0.15,0,No,No
Surface Convection Parameters,99FA8A,0,255.41,210.95,34.40,0,2.83,14.87,4.62,0.15,3,No,No
Surface Convection Parameters,CE9631,0,280.42,221.39,34.40,0,2.83,14.87,4.62,0.15,3,No,No
Surface Convection Parameters,E33917,0,255.41,210.95,34.40,0,2.83,14.87,4.62,0.15,4,No,No
Surface Convection Parameters,DDCB5D,0,280.42,221.39,34.40,0,2.83,14.87,4.62,0.15,3,No,No
Surface Convection Parameters,D2B9BD,0,280.42,221.39,34.40,0,2.83,14.87,4.62,0.15,2,No,No
Surface Convection Parameters,589CE0,0,280.42,221.39,34.40,0,2.83,14.87,4.62,0.15,2,No,No
Surface Convection Parameters,CFA69D,0,0.00,0.00,0.00,0,2.83,14.87,4.62,0.15,0,No,No
Surface Convection Parameters,8CA917,0,358.41,159.05,0.00,0,2.83,14.87,4.62,0.15,0,No,No
Surface Convection Parameters,FB8E71,0,280.42,221.39,34.40,0,2.87,13.37,4.00,9.71E-002,3,No,No
Surface Convection Parameters,2ED691,0,280.42,221.39,34.40,0,2.87,13.37,4.00,9.71E-002,2,No,No
Surface Convection Parameters,9515AB,0,0.00,0.00,0.00,0,2.87,13.37,4.00,9.71E-002,0,No,No
Surface Convection Parameters,505C6F,0,280.41,215.10,34.40,0,2.87,13.37,4.00,9.71E-002,3,No,No
Surface Convection Parameters,A14D79,0,280.41,215.10,34.40,0,2.87,13.37,4.00,9.71E-002,2,No,No
Surface Convection Parameters,16CAD5,0,255.41,210.95,34.40,0,2.87,13.37,4.00,9.71E-002,4,No,No
Surface Convection Parameters,9E11EE,0,0.00,0.00,0.00,0,2.87,13.37,4.00,9.71E-002,0,No,No
Surface Convection Parameters,F4F565,0,0.00,0.00,0.00,0,2.87,13.37,4.00,9.71E-002,0,No,No
Surface Convection Parameters,1C01B8,0,358.41,159.05,0.00,0,2.87,13.37,4.00,9.71E-002,0,No,No
Surface Convection Parameters,5FE007,0,280.42,221.39,34.40,0,2.87,4.53,4.00,0.29,3,No,No
Surface Convection Parameters,277330,0,280.42,221.39,34.40,0,2.87,4.53,4.00,0.29,2,No,No
Surface Convection Parameters,6F006D,0,0.00,0.00,0.00,0,2.87,4.53,4.00,0.29,0,No,No
Surface Convection Parameters,AE1BBD,0,280.41,215.10,34.40,0,2.87,4.53,4.00,0.29,3,No,No
Surface Convection Parameters,253964,0,280.41,215.10,34.40,0,2.87,4.53,4.00,0.29,2,No,No
Surface Convection Parameters,C07EEF,0,0.00,0.00,0.00,0,2.87,4.53,4.00,0.29,0,No,No
Surface Convection Parameters,9DD567,0,0.00,0.00,0.00,0,2.87,4.53,4.00,0.29,0,No,No
Surface Convection Parameters,EAA6B2,0,0.00,0.00,0.00,0,2.87,4.53,4.00,0.29,0,No,No
Surface Convection Parameters,595A23,0,358.41,159.05,0.00,0,2.87,4.53,4.00,0.29,0,No,No
Surface Convection Parameters,2DD4CC,0,228.20,221.39,34.40,0,5.86,14.87,5.37,0.15,4,No,No
Surface Convection Parameters,7B5F9C,0,280.42,221.39,34.40,0,5.86,14.87,5.37,0.15,4,No,No
Surface Convection Parameters,1ACF04,0,228.20,221.39,34.40,0,5.86,14.87,5.37,0.15,3,No,No
Surface Convection Parameters,D683DB,0,0.00,0.00,0.00,0,5.86,14.87,5.37,0.15,0,No,No
[...]
Zone Surfaces,TOP_3R_NV_MID,16
HeatTransfer Surface,D30172,Wall,,CTF - ConductionTransferFunction,EXTERIOR WALL,0.311,0.298,,5.95,5.95,5.95,81.60,90.00,2.12,2.80,0.00,ExternalEnvironment,DOE-2,ASHRAETARP,SunExposed,WindExposed,0.50,0.50,0.59,0.41,4
HeatTransfer Surface,A03C9D,Wall,,CTF - ConductionTransferFunction,EXTERIOR WALL,0.311,0.298,,1.98,3.11,1.98,351.60,90.00,1.11,2.80,0.00,ExternalEnvironment,DOE-2,ASHRAETARP,SunExposed,WindExposed,0.50,0.50,0.67,0.33,4
HeatTransfer Surface,5C02CA,Window,A03C9D,Window5 Detailed Fenestration,EXTERIOR WINDOW,N/A,5.778,No,1.13,1.13,1.13,351.60,90.00,1.00,1.13,0.00,ExternalEnvironment,DOE-2,ASHRAETARP,SunExposed,WindExposed,0.50,0.50,0.67,0.33,4
HeatTransfer Surface,49DDF4,Wall,,CTF - ConductionTransferFunction,INTERIOR WALL,5.217,2.929,,33.04,33.04,33.04,81.60,90.00,11.80,2.80,0.00,49DDF4,Other/Same Surface Int Conv,ASHRAETARP,NoSun,NoWind,0.00,0.50,0.50,0.50,4
HeatTransfer Surface,AA94FC,Wall,,CTF - ConductionTransferFunction,EXTERIOR WALL,0.311,0.298,,6.84,8.53,6.84,171.60,90.00,3.05,2.80,0.00,ExternalEnvironment,DOE-2,ASHRAETARP,SunExposed,WindExposed,0.50,0.50,0.68,0.32,4
HeatTransfer Surface,75250A,Window,AA94FC,Window5 Detailed Fenestration,EXTERIOR WINDOW,N/A,5.778,No,1.70,1.70,1.70,171.60,90.00,1.20,1.41,0.00,ExternalEnvironment,DOE-2,ASHRAETARP,SunExposed,WindExposed,0.50,0.50,0.66,0.34,4
HeatTransfer Surface,5D2093,Wall,,CTF - ConductionTransferFunction,INTERIOR WALL,5.217,2.929,,24.75,24.75,24.75,261.60,90.00,8.84,2.80,0.00,6F006D,Other/Same Surface Int Conv,ASHRAETARP,NoSun,NoWind,0.50,0.50,0.50,0.50,4
HeatTransfer Surface,1DC386,Wall,,CTF - ConductionTransferFunction,INTERIOR WALL,5.217,2.929,,4.37,4.37,4.37,171.60,90.00,1.56,2.80,0.00,9DD567,Other/Same Surface Int Conv,ASHRAETARP,NoSun,NoWind,0.50,0.50,0.50,0.50,4
HeatTransfer Surface,99FA8A,Wall,,CTF - ConductionTransferFunction,EXTERIOR WALL,0.311,0.298,,8.29,8.29,8.29,261.60,90.00,2.96,2.80,0.00,ExternalEnvironment,DOE-2,ASHRAETARP,SunExposed,WindExposed,0.50,0.50,0.58,0.42,4
HeatTransfer Surface,CE9631,Wall,,CTF - ConductionTransferFunction,EXTERIOR WALL,0.311,0.298,,1.40,1.40,1.40,351.60,90.00,0.50,2.80,0.00,ExternalEnvironment,DOE-2,ASHRAETARP,SunExposed,WindExposed,0.50,0.50,0.71,0.29,4
HeatTransfer Surface,E33917,Wall,,CTF - ConductionTransferFunction,EXTERIOR WALL,0.311,0.298,,5.95,5.95,5.95,261.60,90.00,2.13,2.80,0.00,ExternalEnvironment,DOE-2,ASHRAETARP,SunExposed,WindExposed,0.50,0.50,0.56,0.44,4
HeatTransfer Surface,DDCB5D,Wall,,CTF - ConductionTransferFunction,EXTERIOR WALL,0.311,0.298,,5.00,8.40,5.00,351.60,90.00,3.00,2.80,0.00,ExternalEnvironment,DOE-2,ASHRAETARP,SunExposed,WindExposed,0.50,0.50,0.55,0.45,4
HeatTransfer Surface,D2B9BD,Window,DDCB5D,Window5 Detailed Fenestration,EXTERIOR WINDOW,N/A,5.778,No,1.70,1.70,1.70,351.60,90.00,1.20,1.41,0.00,ExternalEnvironment,DOE-2,ASHRAETARP,SunExposed,WindExposed,0.50,0.50,0.51,0.49,4
HeatTransfer Surface,589CE0,Window,DDCB5D,Window5 Detailed Fenestration,EXTERIOR WINDOW,N/A,5.778,No,1.70,1.70,1.70,351.60,90.00,1.20,1.41,0.00,ExternalEnvironment,DOE-2,ASHRAETARP,SunExposed,WindExposed,0.50,0.50,0.51,0.49,4
HeatTransfer Surface,CFA69D,Floor,,CTF - ConductionTransferFunction,INTERIOR FLOOR,13.000,3.125,,46.96,46.96,46.96,351.60,180.00,6.85,6.85,0.00,CFA69D,Other/Same Surface Int Conv,ASHRAETARP,NoSun,NoWind,0.00,0.00,1.00,0.00,10
HeatTransfer Surface,8CA917,Roof,,CTF - ConductionTransferFunction,EXTERIOR ROOF,3.037,1.932,,46.96,46.96,46.96,351.60,0.00,6.85,6.85,0.00,ExternalEnvironment,DOE-2,ASHRAETARP,SunExposed,WindExposed,0.00,1.00,0.00,1.00,10
Zone Surfaces,TOP_3R_AC_LFT,9
HeatTransfer Surface,FB8E71,Wall,,CTF - ConductionTransferFunction,EXTERIOR WALL,0.311,0.298,,2.34,4.16,2.34,351.60,90.00,1.49,2.80,0.00,ExternalEnvironment,DOE-2,ASHRAETARP,SunExposed,WindExposed,0.50,0.50,0.65,0.35,4
HeatTransfer Surface,2ED691,Window,FB8E71,Window5 Detailed Fenestration,EXTERIOR WINDOW,N/A,5.778,No,1.82,1.82,1.82,351.60,90.00,1.20,1.52,0.00,ExternalEnvironment,DOE-2,ASHRAETARP,SunExposed,WindExposed,0.50,0.50,0.65,0.35,4
HeatTransfer Surface,9515AB,Wall,,CTF - ConductionTransferFunction,INTERIOR WALL,5.217,2.929,,24.75,24.75,24.75,81.60,90.00,8.84,2.80,0.00,907FE0,Other/Same Surface Int Conv,ASHRAETARP,NoSun,NoWind,0.50,0.50,0.50,0.50,4
HeatTransfer Surface,505C6F,Wall,,CTF - ConductionTransferFunction,EXTERIOR WALL,0.311,0.298,,6.72,8.53,6.72,171.60,90.00,3.05,2.80,0.00,ExternalEnvironment,DOE-2,ASHRAETARP,SunExposed,WindExposed,0.50,0.50,0.79,0.21,4
HeatTransfer Surface,A14D79,Window,505C6F,Window5 Detailed Fenestration,EXTERIOR WINDOW,N/A,5.778,No,1.82,1.82,1.82,171.60,90.00,1.20,1.52,0.00,ExternalEnvironment,DOE-2,ASHRAETARP,SunExposed,WindExposed,0.50,0.50,0.77,0.23,4
HeatTransfer Surface,16CAD5,Wall,,CTF - ConductionTransferFunction,EXTERIOR WALL,0.311,0.298,,24.75,24.75,24.75,261.60,90.00,8.84,2.80,0.00,ExternalEnvironment,DOE-2,ASHRAETARP,SunExposed,WindExposed,0.50,0.50,0.72,0.28,4
HeatTransfer Surface,9E11EE,Wall,,CTF - ConductionTransferFunction,INTERIOR WALL,5.217,2.929,,4.37,4.37,4.37,351.60,90.00,1.56,2.80,0.00,D222D1,Other/Same Surface Int Conv,ASHRAETARP,NoSun,NoWind,0.50,0.50,0.50,0.50,4
HeatTransfer Surface,F4F565,Floor,,CTF - ConductionTransferFunction,INTERIOR FLOOR,13.000,3.125,,26.94,26.94,26.94,351.60,180.00,3.05,8.84,0.00,F4F565,Other/Same Surface Int Conv,ASHRAETARP,NoSun,NoWind,0.00,0.00,1.00,0.00,4
HeatTransfer Surface,1C01B8,Roof,,CTF - ConductionTransferFunction,EXTERIOR ROOF,3.037,1.932,,26.94,26.94,26.94,171.60,0.00,3.05,8.84,0.00,ExternalEnvironment,DOE-2,ASHRAETARP,SunExposed,WindExposed,0.00,1.00,0.00,1.00,4
Zone Surfaces,TOP_3R_AC_MID,9
HeatTransfer Surface,5FE007,Wall,,CTF - ConductionTransferFunction,EXTERIOR WALL,0.311,0.298,,2.34,4.16,2.34,351.60,90.00,1.49,2.80,0.00,ExternalEnvironment,DOE-2,ASHRAETARP,SunExposed,WindExposed,0.50,0.50,0.65,0.35,4
HeatTransfer Surface,277330,Window,5FE007,Window5 Detailed Fenestration,EXTERIOR WINDOW,N/A,5.778,No,1.82,1.82,1.82,351.60,90.00,1.20,1.52,0.00,ExternalEnvironment,DOE-2,ASHRAETARP,SunExposed,WindExposed,0.50,0.50,0.65,0.35,4
HeatTransfer Surface,6F006D,Wall,,CTF - ConductionTransferFunction,INTERIOR WALL,5.217,2.929,,24.75,24.75,24.75,81.60,90.00,8.84,2.80,0.00,5D2093,Other/Same Surface Int Conv,ASHRAETARP,NoSun,NoWind,0.50,0.50,0.50,0.50,4
HeatTransfer Surface,AE1BBD,Wall,,CTF - ConductionTransferFunction,EXTERIOR WALL,0.311,0.298,,6.72,8.53,6.72,171.60,90.00,3.05,2.80,0.00,ExternalEnvironment,DOE-2,ASHRAETARP,SunExposed,WindExposed,0.50,0.50,0.68,0.32,4
HeatTransfer Surface,253964,Window,AE1BBD,Window5 Detailed Fenestration,EXTERIOR WINDOW,N/A,5.778,No,1.82,1.82,1.82,171.60,90.00,1.20,1.52,0.00,ExternalEnvironment,DOE-2,ASHRAETARP,SunExposed,WindExposed,0.50,0.50,0.67,0.33,4
HeatTransfer Surface,C07EEF,Wall,,CTF - ConductionTransferFunction,INTERIOR WALL,5.217,2.929,,24.75,24.75,24.75,261.60,90.00,8.84,2.80,0.00,C07EEF,Other/Same Surface Int Conv,ASHRAETARP,NoSun,NoWind,0.00,0.50,0.50,0.50,4
HeatTransfer Surface,9DD567,Wall,,CTF - ConductionTransferFunction,INTERIOR WALL,5.217,2.929,,4.37,4.37,4.37,351.60,90.00,1.56,2.80,0.00,1DC386,Other/Same Surface Int Conv,ASHRAETARP,NoSun,NoWind,0.50,0.50,0.50,0.50,4
HeatTransfer Surface,EAA6B2,Floor,,CTF - ConductionTransferFunction,INTERIOR FLOOR,13.000,3.125,,26.94,26.94,26.94,351.60,180.00,3.05,8.84,0.00,EAA6B2,Other/Same Surface Int Conv,ASHRAETARP,NoSun,NoWind,0.00,0.00,1.00,0.00,4
HeatTransfer Surface,595A23,Roof,,CTF - ConductionTransferFunction,EXTERIOR ROOF,3.037,1.932,,26.94,26.94,26.94,171.60,0.00,3.05,8.84,0.00,ExternalEnvironment,DOE-2,ASHRAETARP,SunExposed,WindExposed,0.00,1.00,0.00,1.00,4
Zone Surfaces,TOP_3R_NV_RHT,16
HeatTransfer Surface,2DD4CC,Wall,,CTF - ConductionTransferFunction,EXTERIOR WALL,0.311,0.298,,5.95,5.95,5.95,81.60,90.00,2.13,2.80,0.00,ExternalEnvironment,DOE-2,ASHRAETARP,SunExposed,WindExposed,0.50,0.50,0.56,0.44,4
HeatTransfer Surface,7B5F9C,Wall,,CTF - ConductionTransferFunction,EXTERIOR WALL,0.311,0.298,,1.40,1.40,1.40,351.60,90.00,0.50,2.80,0.00,ExternalEnvironment,DOE-2,ASHRAETARP,SunExposed,WindExposed,0.50,0.50,0.71,0.29,4
HeatTransfer Surface,1ACF04,Wall,,CTF - ConductionTransferFunction,EXTERIOR WALL,0.311,0.298,,8.29,8.29,8.29,81.60,90.00,2.96,2.80,0.00,ExternalEnvironment,DOE-2,ASHRAETARP,SunExposed,WindExposed,0.50,0.50,0.58,0.42,4
HeatTransfer Surface,D683DB,Wall,,CTF - ConductionTransferFunction,INTERIOR WALL,5.217,2.929,,4.37,4.37,4.37,171.60,90.00,1.56,2.80,0.00,607A72,Other/Same Surface Int Conv,ASHRAETARP,NoSun,NoWind,0.50,0.50,0.50,0.50,4
HeatTransfer Surface,2A3A5D,Wall,,CTF - ConductionTransferFunction,INTERIOR WALL,5.217,2.929,,24.75,24.75,24.75,81.60,90.00,8.84,2.80,0.00,41779A,Other/Same Surface Int Conv,ASHRAETARP,NoSun,NoWind,0.50,0.50,0.50,0.50,4
HeatTransfer Surface,AB6A7E,Wall,,CTF - ConductionTransferFunction,EXTERIOR WALL,0.311,0.298,,6.84,8.53,6.84,171.60,90.00,3.05,2.80,0.00,ExternalEnvironment,DOE-2,ASHRAETARP,SunExposed,WindExposed,0.50,0.50,0.71,0.29,4
HeatTransfer Surface,DA9B49,Window,AB6A7E,Window5 Detailed Fenestration,EXTERIOR WINDOW,N/A,5.778,No,1.70,1.70,1.70,171.60,90.00,1.20,1.41,0.00,ExternalEnvironment,DOE-2,ASHRAETARP,SunExposed,WindExposed,0.50,0.50,0.70,0.30,4
HeatTransfer Surface,3C3CB9,Wall,,CTF - ConductionTransferFunction,INTERIOR WALL,5.217,2.929,,33.04,33.04,33.04,261.60,90.00,11.80,2.80,0.00,3C3CB9,Other/Same Surface Int Conv,ASHRAETARP,NoSun,NoWind,0.00,0.50,0.50,0.50,4
HeatTransfer Surface,3A7027,Wall,,CTF - ConductionTransferFunction,EXTERIOR WALL,0.311,0.298,,1.98,3.11,1.98,351.60,90.00,1.11,2.80,0.00,ExternalEnvironment,DOE-2,ASHRAETARP,SunExposed,WindExposed,0.50,0.50,0.67,0.33,4
HeatTransfer Surface,210DA1,Window,3A7027,Window5 Detailed Fenestration,EXTERIOR WINDOW,N/A,5.778,No,1.13,1.13,1.13,351.60,90.00,1.00,1.13,0.00,ExternalEnvironment,DOE-2,ASHRAETARP,SunExposed,WindExposed,0.50,0.50,0.66,0.34,4
HeatTransfer Surface,29EF4F,Wall,,CTF - ConductionTransferFunction,EXTERIOR WALL,0.311,0.298,,5.95,5.95,5.95,261.60,90.00,2.13,2.80,0.00,ExternalEnvironment,DOE-2,ASHRAETARP,SunExposed,WindExposed,0.50,0.50,0.59,0.41,4
HeatTransfer Surface,D769F6,Wall,,CTF - ConductionTransferFunction,EXTERIOR WALL,0.311,0.298,,5.00,8.40,5.00,351.60,90.00,3.00,2.80,0.00,ExternalEnvironment,DOE-2,ASHRAETARP,SunExposed,WindExposed,0.50,0.50,0.55,0.45,4
HeatTransfer Surface,1F64B3,Window,D769F6,Window5 Detailed Fenestration,EXTERIOR WINDOW,N/A,5.778,No,1.70,1.70,1.70,351.60,90.00,1.20,1.41,0.00,ExternalEnvironment,DOE-2,ASHRAETARP,SunExposed,WindExposed,0.50,0.50,0.51,0.49,4
HeatTransfer Surface,C0CE40,Window,D769F6,Window5 Detailed Fenestration,EXTERIOR WINDOW,N/A,5.778,No,1.70,1.70,1.70,351.60,90.00,1.20,1.42,0.00,ExternalEnvironment,DOE-2,ASHRAETARP,SunExposed,WindExposed,0.50,0.50,0.51,0.49,4
HeatTransfer Surface,983555,Floor,,CTF - ConductionTransferFunction,INTERIOR FLOOR,13.000,3.125,,46.96,46.96,46.96,171.60,180.00,6.85,6.85,0.00,983555,Other/Same Surface Int Conv,ASHRAETARP,NoSun,NoWind,0.00,0.00,1.00,0.00,10
HeatTransfer Surface,AE405A,Roof,,CTF - ConductionTransferFunction,EXTERIOR ROOF,3.037,1.932,,46.96,46.96,46.96,351.60,0.00,6.85,6.85,0.00,ExternalEnvironment,DOE-2,ASHRAETARP,SunExposed,WindExposed,0.00,1.00,0.00,1.00,10
Zone Surfaces,TOP_3R_NV_LFT,16
HeatTransfer Surface,1CC64C,Wall,,CTF - ConductionTransferFunction,EXTERIOR WALL,0.311,0.298,,5.95,5.95,5.95,81.60,90.00,2.13,2.80,0.00,ExternalEnvironment,DOE-2,ASHRAETARP,SunExposed,WindExposed,0.50,0.50,0.58,0.42,4
HeatTransfer Surface,3D5490,Wall,,CTF - ConductionTransferFunction,EXTERIOR WALL,0.311,0.298,,1.98,3.11,1.98,351.60,90.00,1.11,2.80,0.00,ExternalEnvironment,DOE-2,ASHRAETARP,SunExposed,WindExposed,0.50,0.50,0.67,0.33,4
HeatTransfer Surface,CC449B,Window,3D5490,Window5 Detailed Fenestration,EXTERIOR WINDOW,N/A,5.778,No,1.13,1.13,1.13,351.60,90.00,1.00,1.13,0.00,ExternalEnvironment,DOE-2,ASHRAETARP,SunExposed,WindExposed,0.50,0.50,0.66,0.34,4
HeatTransfer Surface,9A2A47,Wall,,CTF - ConductionTransferFunction,INTERIOR WALL,5.217,2.929,,33.04,33.04,33.04,81.60,90.00,11.80,2.80,0.00,9A2A47,Other/Same Surface Int Conv,ASHRAETARP,NoSun,NoWind,0.00,0.50,0.50,0.50,4
HeatTransfer Surface,84529B,Wall,,CTF - ConductionTransferFunction,EXTERIOR WALL,0.311,0.298,,6.84,8.53,6.84,171.60,90.00,3.05,2.80,0.00,ExternalEnvironment,DOE-2,ASHRAETARP,SunExposed,WindExposed,0.50,0.50,0.72,0.28,4
HeatTransfer Surface,B5A0F1,Window,84529B,Window5 Detailed Fenestration,EXTERIOR WINDOW,N/A,5.778,No,1.70,1.70,1.70,171.60,90.00,1.20,1.41,0.00,ExternalEnvironment,DOE-2,ASHRAETARP,SunExposed,WindExposed,0.50,0.50,0.72,0.28,4
HeatTransfer Surface,907FE0,Wall,,CTF - ConductionTransferFunction,INTERIOR WALL,5.217,2.929,,24.75,24.75,24.75,261.60,90.00,8.84,2.80,0.00,9515AB,Other/Same Surface Int Conv,ASHRAETARP,NoSun,NoWind,0.50,0.50,0.50,0.50,4
HeatTransfer Surface,D222D1,Wall,,CTF - ConductionTransferFunction,INTERIOR WALL,5.217,2.929,,4.37,4.37,4.37,171.60,90.00,1.56,2.80,0.00,9E11EE,Other/Same Surface Int Conv,ASHRAETARP,NoSun,NoWind,0.50,0.50,0.50,0.50,4
HeatTransfer Surface,512080,Wall,,CTF - ConductionTransferFunction,EXTERIOR WALL,0.311,0.298,,8.29,8.29,8.29,261.60,90.00,2.96,2.80,0.00,ExternalEnvironment,DOE-2,ASHRAETARP,SunExposed,WindExposed,0.50,0.50,0.58,0.42,4
HeatTransfer Surface,9FE16B,Wall,,CTF - ConductionTransferFunction,EXTERIOR WALL,0.311,0.298,,1.40,1.40,1.40,351.60,90.00,0.50,2.80,0.00,ExternalEnvironment,DOE-2,ASHRAETARP,SunExposed,WindExposed,0.50,0.50,0.71,0.29,4
HeatTransfer Surface,AFA981,Wall,,CTF - ConductionTransferFunction,EXTERIOR WALL,0.311,0.298,,5.95,5.95,5.95,261.60,90.00,2.12,2.80,0.00,ExternalEnvironment,DOE-2,ASHRAETARP,SunExposed,WindExposed,0.50,0.50,0.56,0.44,4
HeatTransfer Surface,3A1818,Wall,,CTF - ConductionTransferFunction,EXTERIOR WALL,0.311,0.298,,5.00,8.40,5.00,351.60,90.00,3.00,2.80,0.00,ExternalEnvironment,DOE-2,ASHRAETARP,SunExposed,WindExposed,0.50,0.50,0.54,0.46,4
HeatTransfer Surface,1EA7B0,Window,3A1818,Window5 Detailed Fenestration,EXTERIOR WINDOW,N/A,5.778,No,1.70,1.70,1.70,351.60,90.00,1.20,1.42,0.00,ExternalEnvironment,DOE-2,ASHRAETARP,SunExposed,WindExposed,0.50,0.50,0.51,0.49,4
HeatTransfer Surface,9A0068,Window,3A1818,Window5 Detailed Fenestration,EXTERIOR WINDOW,N/A,5.778,No,1.70,1.70,1.70,351.60,90.00,1.20,1.41,0.00,ExternalEnvironment,DOE-2,ASHRAETARP,SunExposed,WindExposed,0.50,0.50,0.52,0.48,4
HeatTransfer Surface,1BF807,Floor,,CTF - ConductionTransferFunction,INTERIOR FLOOR,13.000,3.125,,46.96,46.96,46.96,351.60,180.00,6.85,6.85,0.00,1BF807,Other/Same Surface Int Conv,ASHRAETARP,NoSun,NoWind,0.00,0.00,1.00,0.00,10
HeatTransfer Surface,815C4A,Roof,,CTF - ConductionTransferFunction,EXTERIOR ROOF,3.037,1.932,,46.96,46.96,46.96,351.60,0.00,6.85,6.85,0.00,ExternalEnvironment,DOE-2,ASHRAETARP,SunExposed,WindExposed,0.00,1.00,0.00,1.00,10
! <Environment>,Environment Name,Environment Type, Start Date, End Date, Start DayOfWeek, Duration {#days}, Source:Start DayOfWeek,  Use Daylight Saving, Use Holidays, Apply Weekend Holiday Rule,  Use Rain Values, Use Snow Values, Sky Temperature Model
! <Environment:Special Days>, Special Day Name, Special Day Type, Source, Start Date, Duration {#days}
! <Environment:Daylight Saving>, Daylight Saving Indicator, Source, Start Date, End Date
! <Environment:WarmupDays>, NumberofWarmupDays
Environment,JUNE2015,WeatherFileRunPeriod,06/01/2015,06/30/2015,Monday,30,Use RunPeriod Specified Day,No,No,No,Yes,No,Clark and Allen
Environment:Daylight Saving,No,RunPeriod Object
Environment:WarmupDays,  4
! <Warmup Convergence Information>,Zone Name,Environment Type/Name,Average Warmup Temperature Difference {deltaC},Std Dev Warmup Temperature Difference {deltaC},Max Temperature Pass/Fail Convergence,Min Temperature Pass/Fail Convergence,Average Warmup Load Difference {W},Std Dev Warmup Load Difference {W},Heating Load Pass/Fail Convergence,Cooling Load Pass/Fail Convergence
 Warmup Convergence Information,GND_5R_NAC,RunPeriod: JUNE2015,3.3893006093E-003,3.2390958940E-003,Pass,Pass,0.0000000000,0.0000000000,Pass,Pass
 Warmup Convergence Information,GND_5R_NV,RunPeriod: JUNE2015,2.8065260608E-003,2.3383543039E-003,Pass,Pass,0.0000000000,0.0000000000,Pass,Pass
 Warmup Convergence Information,TOP_5R_NV,RunPeriod: JUNE2015,1.8169716835E-002,1.9270855612E-002,Pass,Pass,0.0000000000,0.0000000000,Pass,Pass
 Warmup Convergence Information,TOP_5R_AC,RunPeriod: JUNE2015,2.8422021171E-002,0.2165635120,Pass,Pass,3.9660285777E-003,6.0462100794E-002,Pass,Pass
 Warmup Convergence Information,MID_5R_AC,RunPeriod: JUNE2015,2.8970021031E-002,0.2183069784,Pass,Pass,3.2967447746E-003,4.5887852588E-002,Pass,Pass
 Warmup Convergence Information,MID_5R_NV,RunPeriod: JUNE2015,1.8233464596E-002,1.9551424632E-002,Pass,Pass,0.0000000000,0.0000000000,Pass,Pass
 Warmup Convergence Information,GND_3R_NAC_RHT,RunPeriod: JUNE2015,3.5273030142E-003,3.0808944873E-003,Pass,Pass,0.0000000000,0.0000000000,Pass,Pass
 Warmup Convergence Information,GND_3R_NV_RHT,RunPeriod: JUNE2015,3.4738575870E-003,3.3070360127E-003,Pass,Pass,0.0000000000,0.0000000000,Pass,Pass
 Warmup Convergence Information,GND_3R_NV_MID,RunPeriod: JUNE2015,3.5578025088E-003,3.3867195286E-003,Pass,Pass,0.0000000000,0.0000000000,Pass,Pass
 Warmup Convergence Information,GND_3R_NAC_MID,RunPeriod: JUNE2015,3.0725006607E-003,2.5896409596E-003,Pass,Pass,0.0000000000,0.0000000000,Pass,Pass
 Warmup Convergence Information,GND_3R_NAC_LFT,RunPeriod: JUNE2015,3.5881192835E-003,3.0059204731E-003,Pass,Pass,0.0000000000,0.0000000000,Pass,Pass
 Warmup Convergence Information,GND_3R_NV_LFT,RunPeriod: JUNE2015,3.8945607952E-003,3.4389915956E-003,Pass,Pass,0.0000000000,0.0000000000,Pass,Pass
 Warmup Convergence Information,MID_3R_AC_RHT,RunPeriod: JUNE2015,2.9137930593E-002,0.2182810255,Pass,Pass,3.2229137402E-003,4.0080158079E-002,Pass,Pass
 Warmup Convergence Information,MID_3R_AC_MID,RunPeriod: JUNE2015,2.9065697315E-002,0.2185693058,Pass,Pass,3.1701647991E-003,4.0712119287E-002,Pass,Pass
 Warmup Convergence Information,MID_3R_NV_MID,RunPeriod: JUNE2015,2.0447835596E-002,3.5495313568E-002,Pass,Pass,0.0000000000,0.0000000000,Pass,Pass
 Warmup Convergence Information,MID_3R_NV_RHT,RunPeriod: JUNE2015,2.0445449529E-002,3.5496953329E-002,Pass,Pass,0.0000000000,0.0000000000,Pass,Pass
 Warmup Convergence Information,MID_3R_AC_LFT,RunPeriod: JUNE2015,2.9110690671E-002,0.2183226895,Pass,Pass,3.2166538331E-003,4.0500114327E-002,Pass,Pass
 Warmup Convergence Information,MID_3R_NV_LFT,RunPeriod: JUNE2015,2.0433703387E-002,3.5490356050E-002,Pass,Pass,0.0000000000,0.0000000000,Pass,Pass
 Warmup Convergence Information,TOP_3R_AC_RHT,RunPeriod: JUNE2015,2.8681668957E-002,0.2160662743,Pass,Pass,3.6919309494E-003,5.2842696700E-002,Pass,Pass
 Warmup Convergence Information,TOP_3R_NV_MID,RunPeriod: JUNE2015,2.0229320917E-002,3.5262937164E-002,Pass,Pass,0.0000000000,0.0000000000,Pass,Pass
 Warmup Convergence Information,TOP_3R_AC_LFT,RunPeriod: JUNE2015,2.8657099785E-002,0.2161669844,Pass,Pass,3.7147741150E-003,5.3359491226E-002,Pass,Pass
 Warmup Convergence Information,TOP_3R_AC_MID,RunPeriod: JUNE2015,2.8622551192E-002,0.2165349307,Pass,Pass,3.7040600931E-003,5.3876343420E-002,Pass,Pass
 Warmup Convergence Information,TOP_3R_NV_RHT,RunPeriod: JUNE2015,2.0226873254E-002,3.5263804436E-002,Pass,Pass,0.0000000000,0.0000000000,Pass,Pass
 Warmup Convergence Information,TOP_3R_NV_LFT,RunPeriod: JUNE2015,2.0227118196E-002,3.5271922395E-002,Pass,Pass,0.0000000000,0.0000000000,Pass,Pass
! <Program Control Information:Threads/Parallel Sims>, Threading Supported,Maximum Number of Threads, Env Set Threads (OMP_NUM_THREADS), EP Env Set Threads (EP_OMP_NUM_THREADS), IDF Set Threads, Number of Threads Used (Interior Radiant Exchange), Number Nominal Surfaces, Number Parallel Sims
Program Control:Threads/Parallel Sims, No,1, N/A, N/A, N/A, N/A, N/A, N/A
End of Data
