Program Version,EnergyPlus, Version 9.3.0-baff08990c, YMD=2025.12.08 12:12,
   ** Warning ** ManageSizing: For a zone sizing run, there must be at least 1 Sizing:Zone input object. SimulationControl Zone Sizing option ignored.
   ** Warning ** Weather file location will be used rather than entered (IDF) Location object.
   **   ~~~   ** ..Location object=SINGAPORE
   **   ~~~   ** ..Weather File Location=SINGAPORE - SGP IWEC Data WMO#=486980
   **   ~~~   ** ..due to location differences, Latitude difference=[7.00E-002] degrees, Longitude difference=[0.18] degrees.
   **   ~~~   ** ..Time Zone difference=[0.0] hour(s), Elevation difference=[166.67] percent, [10.00] meters.
   ** Warning ** ProcessScheduleInput: Schedule:Compact="FAN SCHEDULE" has missing day types in Through=12/31
   **   ~~~   ** Last "For" field=FOR: WEEKENDS
   **   ~~~   ** Missing day types="Holiday","SummerDesignDay","WinterDesignDay","CustomDay1","CustomDay2"
   **   ~~~   ** Missing day types will have 0.0 as Schedule Values
   ** Warning ** ProcessScheduleInput: Schedule:Compact="NAC LIGHTING SCHEDULE" has missing day types in Through=12/31
   **   ~~~   ** Last "For" field=FOR: WEEKENDS
   **   ~~~   ** Missing day types="Holiday","SummerDesignDay","WinterDesignDay","CustomDay1","CustomDay2"
   **   ~~~   ** Missing day types will have 0.0 as Schedule Values
   ** Warning ** ProcessScheduleInput: Schedule:Compact="COOLING SETPOINT SCHEDULE" has missing day types in Through=12/31
   **   ~~~   ** Last "For" field=FOR: WEEKENDS
   **   ~~~   ** Missing day types="Holiday","SummerDesignDay","WinterDesignDay","CustomDay1","CustomDay2"
   **   ~~~   ** Missing day types will have 0.0 as Schedule Values
   ** Warning ** ProcessScheduleInput: Schedule:Compact="KETTLE SCHEDULE" has missing day types in Through=12/31
   **   ~~~   ** Last "For" field=FOR: WEEKENDS
   **   ~~~   ** Missing day types="Holiday","SummerDesignDay","WinterDesignDay","CustomDay1","CustomDay2"
   **   ~~~   ** Missing day types will have 0.0 as Schedule Values
   ** Warning ** ProcessScheduleInput: Schedule:Compact="TV SCHEDULE" has missing day types in Through=12/31
   **   ~~~   ** Last "For" field=FOR: WEEKENDS
   **   ~~~   ** Missing day types="Holiday","SummerDesignDay","WinterDesignDay","CustomDay1","CustomDay2"
   **   ~~~   ** Missing day types will have 0.0 as Schedule Values
   ** Warning ** ProcessScheduleInput: Schedule:Compact="COMPUTER SCHEDULE" has missing day types in Through=12/31
   **   ~~~   ** Last "For" field=FOR: WEEKENDS
   **   ~~~   ** Missing day types="Holiday","SummerDesignDay","WinterDesignDay","CustomDay1","CustomDay2"
   **   ~~~   ** Missing day types will have 0.0 as Schedule Values
   ** Warning ** ProcessScheduleInput: Schedule:Compact="RICE COOKER SCHEDULE" has missing day types in Through=12/31
   **   ~~~   ** Last "For" field=FOR: WEEKENDS
   **   ~~~   ** Missing day types="Holiday","SummerDesignDay","WinterDesignDay","CustomDay1","CustomDay2"
   **   ~~~   ** Missing day types will have 0.0 as Schedule Values
   ** Warning ** ProcessScheduleInput: Schedule:Compact="SLEEPING SCHEDULE PER PAX" has missing day types in Through=12/31
   **   ~~~   ** Last "For" field=FOR: WEEKENDS
   **   ~~~   ** Missing day types="Holiday","SummerDesignDay","WinterDesignDay","CustomDay1","CustomDay2"
   **   ~~~   ** Missing day types will have 0.0 as Schedule Values
   ** Warning ** ProcessScheduleInput: Schedule:Compact="SLEEPING OCC SCHEDULE" has missing day types in Through=12/31
   **   ~~~   ** Last "For" field=FOR: WEEKENDS
   **   ~~~   ** Missing day types="Holiday","SummerDesignDay","WinterDesignDay","CustomDay1","CustomDay2"
   **   ~~~   ** Missing day types will have 0.0 as Schedule Values
   ** Warning ** ProcessScheduleInput: Schedule:Compact="COOLING SCHEDULE" has missing day types in Through=12/31
   **   ~~~   ** Last "For" field=FOR: WEEKENDS
   **   ~~~   ** Missing day types="Holiday","SummerDesignDay","WinterDesignDay","CustomDay1","CustomDay2"
   **   ~~~   ** Missing day types will have 0.0 as Schedule Values
   ** Warning ** ProcessScheduleInput: Schedule:Compact="VENTILATION SCHEDULE" has missing day types in Through=12/31
   **   ~~~   ** Last "For" field=FOR: WEEKENDS
   **   ~~~   ** Missing day types="Holiday","SummerDesignDay","WinterDesignDay","CustomDay1","CustomDay2"
   **   ~~~   ** Missing day types will have 0.0 as Schedule Values
   ** Warning ** ProcessScheduleInput: Schedule:Compact="AC LIGHTING SCHEDULE" has missing day types in Through=12/31
   **   ~~~   ** Last "For" field=FOR: WEEKENDS
   **   ~~~   ** Missing day types="Holiday","SummerDesignDay","WinterDesignDay","CustomDay1","CustomDay2"
   **   ~~~   ** Missing day types will have 0.0 as Schedule Values
   ** Warning ** CheckConvexity: Zone="TOP_5R_NV", Surface="AA1293" is non-convex.
   **   ~~~   ** ...vertex 2 to vertex 3 to vertex 4
   **   ~~~   ** ...vertex 2=[29.53,16.29,34.40]
   **   ~~~   ** ...vertex 3=[28.43,16.12,34.40]
   **   ~~~   ** ...vertex 4=[30.15,4.45,34.40]
   ** Warning ** CheckConvexity: Zone="TOP_5R_NV", Surface="52D9B6" is non-convex.
   **   ~~~   ** ...vertex 3 to vertex 4 to vertex 5
   **   ~~~   ** ...vertex 3=[37.87,14.79,34.40]
   **   ~~~   ** ...vertex 4=[37.78,15.39,34.40]
   **   ~~~   ** ...vertex 5=[38.66,15.52,34.40]
   ** Warning ** CheckConvexity: Zone="TOP_5R_AC", Surface="A1CC73" is non-convex.
   **   ~~~   ** ...vertex 2 to vertex 3 to vertex 4
   **   ~~~   ** ...vertex 2=[38.66,15.52,34.40]
   **   ~~~   ** ...vertex 3=[37.78,15.39,34.40]
   **   ~~~   ** ...vertex 4=[37.87,14.79,34.40]
   ** Warning ** CheckConvexity: Zone="TOP_3R_NV_MID", Surface="8CA917" is non-convex.
   **   ~~~   ** ...vertex 2 to vertex 3 to vertex 4
   **   ~~~   ** ...vertex 2=[48.48,19.09,34.40]
   **   ~~~   ** ...vertex 3=[47.99,19.01,34.40]
   **   ~~~   ** ...vertex 4=[48.42,16.09,34.40]
   ** Warning ** CheckConvexity: Zone="TOP_3R_NV_RHT", Surface="AE405A" is non-convex.
   **   ~~~   ** ...vertex 2 to vertex 3 to vertex 4
   **   ~~~   ** ...vertex 2=[65.71,21.63,34.40]
   **   ~~~   ** ...vertex 3=[64.61,21.47,34.40]
   **   ~~~   ** ...vertex 4=[66.33,9.80,34.40]
   ** Warning ** CheckConvexity: Zone="TOP_3R_NV_LFT", Surface="815C4A" is non-convex.
   **   ~~~   ** ...vertex 2 to vertex 3 to vertex 4
   **   ~~~   ** ...vertex 2=[0.24,11.96,34.40]
   **   ~~~   ** ...vertex 3=[-0.25,11.89,34.40]
   **   ~~~   ** ...vertex 4=[0.18,8.96,34.40]
   ** Warning ** GetSurfaceData: InterZone Surface Areas do not match as expected and might not satisfy conservation of energy:
   **   ~~~   **   Area=4.3, Multipliers=30, Total Area=131.2 in Surface=EE2543 Zone=MID_5R_AC
   **   ~~~   **   Area=4.3, Multipliers=30, Total Area=131.2 in Surface=20742C Zone=MID_5R_NV
   ** Warning ** GetSurfaceData: Entered Floor Area entered for Zone="GND_3R_NAC_RHT" significantly different from calculated Floor Area
   **   ~~~   ** Entered Zone Floor Area value=32.00, Calculated Zone Floor Area value=26.94, entered Floor Area will be used in calculations.
   ** Warning ** GetSurfaceData: Entered Floor Area entered for Zone="GND_3R_NV_RHT" significantly different from calculated Floor Area
   **   ~~~   ** Entered Zone Floor Area value=52.00, Calculated Zone Floor Area value=46.96, entered Floor Area will be used in calculations.
   ** Warning ** GetSurfaceData: Entered Floor Area entered for Zone="MID_3R_AC_RHT" significantly different from calculated Floor Area
   **   ~~~   ** Entered Zone Floor Area value=32.00, Calculated Zone Floor Area value=26.94, entered Floor Area will be used in calculations.
   ** Warning ** GetSurfaceData: Entered Floor Area entered for Zone="MID_3R_NV_RHT" significantly different from calculated Floor Area
   **   ~~~   ** Entered Zone Floor Area value=52.00, Calculated Zone Floor Area value=46.96, entered Floor Area will be used in calculations.
   ** Warning ** GetSurfaceData: Entered Floor Area entered for Zone="TOP_3R_AC_RHT" significantly different from calculated Floor Area
   **   ~~~   ** Entered Zone Floor Area value=32.00, Calculated Zone Floor Area value=26.94, entered Floor Area will be used in calculations.
   ** Warning ** GetSurfaceData: Entered Floor Area entered for Zone="TOP_3R_NV_RHT" significantly different from calculated Floor Area
   **   ~~~   ** Entered Zone Floor Area value=52.00, Calculated Zone Floor Area value=46.96, entered Floor Area will be used in calculations.
   ** Warning ** GetInternalHeatGains: People="SLEEPING 5-R", Activity Level Schedule Name values
   **   ~~~   ** fall outside typical range [70,1000] W/person for Thermal Comfort Reporting.
   **   ~~~   ** Odd comfort values may result; Schedule="SLEEPING SCHEDULE PER PAX".
   **   ~~~   ** Entered min/max range=[0.0,72.0] W/person.
   ** Warning ** GetInternalHeatGains: People="SLEEPING 3-R", Activity Level Schedule Name values
   **   ~~~   ** fall outside typical range [70,1000] W/person for Thermal Comfort Reporting.
   **   ~~~   ** Odd comfort values may result; Schedule="SLEEPING SCHEDULE PER PAX".
   **   ~~~   ** Entered min/max range=[0.0,72.0] W/person.
   ** Warning ** GetInternalHeatGains: People="SITTING 5-R C-ROOMS", Activity Level Schedule Name values
   **   ~~~   ** fall outside typical range [70,1000] W/person for Thermal Comfort Reporting.
   **   ~~~   ** Odd comfort values may result; Schedule="SITTING C-ROOM SCHEDULE PER PAX".
   **   ~~~   ** Entered min/max range=[0.0,108.0] W/person.
   ** Warning ** GetInternalHeatGains: People="SITTING 3-R C-ROOMS", Activity Level Schedule Name values
   **   ~~~   ** fall outside typical range [70,1000] W/person for Thermal Comfort Reporting.
   **   ~~~   ** Odd comfort values may result; Schedule="SITTING C-ROOM SCHEDULE PER PAX".
   **   ~~~   ** Entered min/max range=[0.0,108.0] W/person.
   ** Warning ** GetInternalHeatGains: People="SITTING LIVING ROOMS", Activity Level Schedule Name values
   **   ~~~   ** fall outside typical range [70,1000] W/person for Thermal Comfort Reporting.
   **   ~~~   ** Odd comfort values may result; Schedule="SITTING L-ROOM SCHEDULE PER PAX".
   **   ~~~   ** Entered min/max range=[0.0,108.0] W/person.
   ** Warning ** DetermineShadowingCombinations: Surface="2DEE74" is a receiving surface and is non-convex.
   **   ~~~   ** ...Shadowing values may be inaccurate. Check .shd report file for more surface shading details
   ** Warning ** DetermineShadowingCombinations: Surface="B8EB9C" is a receiving surface and is non-convex.
   **   ~~~   ** ...Shadowing values may be inaccurate. Check .shd report file for more surface shading details
   ** Warning ** DetermineShadowingCombinations: Surface="3F53B0" is a receiving surface and is non-convex.
   **   ~~~   ** ...Shadowing values may be inaccurate. Check .shd report file for more surface shading details
   ** Warning ** DetermineShadowingCombinations: Surface="AA1293" is a receiving surface and is non-convex.
   **   ~~~   ** ...Shadowing values may be inaccurate. Check .shd report file for more surface shading details
   ** Warning ** DetermineShadowingCombinations: Surface="52D9B6" is a receiving surface and is non-convex.
   **   ~~~   ** ...Shadowing values may be inaccurate. Check .shd report file for more surface shading details
   ** Warning ** DetermineShadowingCombinations: Surface="A1CC73" is a receiving surface and is non-convex.
   **   ~~~   ** ...Shadowing values may be inaccurate. Check .shd report file for more surface shading details
   ** Warning ** DetermineShadowingCombinations: Surface="8CA917" is a receiving surface and is non-convex.
   **   ~~~   ** ...Shadowing values may be inaccurate. Check .shd report file for more surface shading details
   ** Warning ** DetermineShadowingCombinations: Surface="AE405A" is a receiving surface and is non-convex.
   **   ~~~   ** ...Shadowing values may be inaccurate. Check .shd report file for more surface shading details
   ** Warning ** DetermineShadowingCombinations: Surface="815C4A" is a receiving surface and is non-convex.
   **   ~~~   ** ...Shadowing values may be inaccurate. Check .shd report file for more surface shading details
   ************* Testing Individual Branch Integrity
   ************* All Branches passed integrity testing
   ************* Testing Individual Supply Air Path Integrity
   ************* All Supply Air Paths passed integrity testing
   ************* Testing Individual Return Air Path Integrity
   ************* All Return Air Paths passed integrity testing
   ************* No node connection errors were found.
   ************* Beginning Simulation
   ************* Simulation Error Summary *************
   ************* There are 4 unused schedules in input.
   ************* Use Output:Diagnostics,DisplayUnusedSchedules; to see them.
   *************
   ************* ===== Final Error Summary =====
   ************* The following error categories occurred.  Consider correcting or noting.
   ************* InterZone Surface Areas -- mismatch
   ************* ..Area mismatch errors happen when the interzone surface in zone A is
   ************* ..not the same size as it's companion in zone B.
   *************
   ************* EnergyPlus Warmup Error Summary. During Warmup: 0 Warning; 0 Severe Errors.
   ************* EnergyPlus Sizing Error Summary. During Sizing: 1 Warning; 0 Severe Errors.
   ************* EnergyPlus Completed Successfully-- 41 Warning; 0 Severe Errors; Elapsed Time=00hr 00min 20.15sec
